/*---------------------------------------------------------------------------*\
| =========                 |                                                 |
| \\      /  F ield         | foam-extend: Open Source CFD                    |
|  \\    /   O peration     | Version:     4.0                                |
|   \\  /    A nd           | Web:         http://www.foam-extend.org         |
|    \\/     M anipulation  | For copyright notice see file Copyright         |
\*---------------------------------------------------------------------------*/
Build    : 4.0-268bb07d15d8
Exec     : reactiveTransportALEFoam -parallel
Date     : Aug 24 2022
Time     : 18:47:33
Host     : EGIS-Linux-02
PID      : 1508537
CtrlDict : "/home/jm44/works/testcase/micromodel/system/controlDict"
Case     : /home/jm44/works/testcase/micromodel
nProcs   : 24
Slaves : 
23
(
EGIS-Linux-02.1508538
EGIS-Linux-02.1508539
EGIS-Linux-02.1508540
EGIS-Linux-02.1508541
EGIS-Linux-02.1508542
EGIS-Linux-02.1508543
EGIS-Linux-02.1508544
EGIS-Linux-02.1508545
EGIS-Linux-02.1508546
EGIS-Linux-02.1508547
EGIS-Linux-02.1508548
EGIS-Linux-02.1508549
EGIS-Linux-02.1508550
EGIS-Linux-02.1508556
EGIS-Linux-02.1508558
EGIS-Linux-02.1508559
EGIS-Linux-02.1508561
EGIS-Linux-02.1508563
EGIS-Linux-02.1508565
EGIS-Linux-02.1508566
EGIS-Linux-02.1508567
EGIS-Linux-02.1508570
EGIS-Linux-02.1508571
)

Pstream initialized with:
    nProcsSimpleSum   : 0
    commsType         : blocking
SigFpe   : Enabling floating point exception trapping (FOAM_SIGFPE).

// * * * * * * * * * * * * * * * * * * * * * * * * * * * * * * * * * * * * * //
Create time

Create dynamic mesh for time = 916.4498494

Selecting dynamicFvMesh dynamicMotionSolverFvMesh
Selecting motion solver: velocityLaplacian
--> FOAM Warning : 
    From function dlLibraryTable::open(const dictionary& dict, const word& libsEntry, const TablePtr tablePtr)
    in file /usr/local/foam/foam-extend-4.0/src/foam/lnInclude/dlLibraryTableTemplates.C at line 67
    library "libfvMotionSolver.so" did not introduce any new entries

Selecting motion diffusion: quadratic
Selecting motion diffusion: inverseDistance

SIMPLE: convergence criteria
    field p	 tolerance 1e-05
    field U	 tolerance 1e-05

Reading field p

Reading field U

Reading transportProperties

Reading/calculating face flux field phi

Create species mixture

Read species diffusion coefficients

Selecting incompressible transport model Newtonian
Selecting RAS turbulence model laminar
Mesh Courant Number mean: 0 max: 0

Starting time loop

Courant Number mean: 0 max: 0 velocity magnitude: 0
Mesh Courant Number mean: 0 max: 0
deltaT = 5.99880024
Time = 922.4486496

PCG:  Solving for cellMotionUx, Initial residual = 0, Final residual = 0, No Iterations 0
PCG:  Solving for cellMotionUy, Initial residual = 0, Final residual = 0, No Iterations 0
--> FOAM Warning : 
    From function twoDPointCorrector::twoDPointCorrector(const polyMesh& mesh, const vector& n)
    in file twoDPointCorrector/twoDPointCorrector.C at line 168
    The number of points in the mesh is not equal to twice the number of edges normal to the plane - this may be OK only for wedge geometries.
    Please check the geometry or adjust the orthogonality tolerance.

Number of normal edges: 23041 number of points: 46084

STEADYSTATE: convergence criteria
    field p	 tolerance 1e-06
    field U	 tolerance 1e-06
    field C	 tolerance 1e-06

GAMG:  Solving for p, Initial residual = 0.9999999985, Final residual = 0.05941458099, No Iterations 18
time step continuity errors : sum local = 9.667575643e-05, global = -4.123947928e-06, cumulative = -4.123947928e-06
BiCGStab:  Solving for C, Initial residual = 0.9999999936, Final residual = 0.0001261923286, No Iterations 1
C concentration =   Min(Yi) = 0  Max(Yi) = 0.00227824539
GAMG:  Solving for p, Initial residual = 0.003670955649, Final residual = 0.0001647318248, No Iterations 8
time step continuity errors : sum local = 0.002171741076, global = -3.582161464e-05, cumulative = -3.994556257e-05
BiCGStab:  Solving for C, Initial residual = 0.2034964547, Final residual = 3.031928481e-05, No Iterations 1
C concentration =   Min(Yi) = 0  Max(Yi) = 0.003509526832
GAMG:  Solving for p, Initial residual = 0.003103756245, Final residual = 0.0001406973675, No Iterations 6
time step continuity errors : sum local = 0.003019065875, global = -4.734143843e-05, cumulative = -8.728700101e-05
BiCGStab:  Solving for C, Initial residual = 0.1031992798, Final residual = 1.150604059e-05, No Iterations 1
C concentration =   Min(Yi) = 0  Max(Yi) = 0.004579854416
GAMG:  Solving for p, Initial residual = 0.002573086865, Final residual = 0.0001601175327, No Iterations 3
time step continuity errors : sum local = 0.004115771405, global = -5.088750836e-05, cumulative = -0.0001381745094
BiCGStab:  Solving for C, Initial residual = 0.06645548541, Final residual = 6.646799017e-06, No Iterations 1
C concentration =   Min(Yi) = 0  Max(Yi) = 0.005444012369
GAMG:  Solving for p, Initial residual = 0.002044676241, Final residual = 0.0001399805123, No Iterations 3
time step continuity errors : sum local = 0.00374740803, global = 3.246004769e-05, cumulative = -0.0001057144617
BiCGStab:  Solving for C, Initial residual = 0.04751174734, Final residual = 4.910271735e-06, No Iterations 1
C concentration =   Min(Yi) = 0  Max(Yi) = 0.006161170362
GAMG:  Solving for p, Initial residual = 0.001517362855, Final residual = 0.0001485613318, No Iterations 4
time step continuity errors : sum local = 0.003881168829, global = 6.896116863e-05, cumulative = -3.675329305e-05
BiCGStab:  Solving for C, Initial residual = 0.03615991924, Final residual = 5.19159331e-06, No Iterations 1
C concentration =   Min(Yi) = 0  Max(Yi) = 0.006722649304
GAMG:  Solving for p, Initial residual = 0.001014662514, Final residual = 9.060507948e-05, No Iterations 6
time step continuity errors : sum local = 0.002173008722, global = 3.319296903e-05, cumulative = -3.560324024e-06
BiCGStab:  Solving for C, Initial residual = 0.02886895668, Final residual = 4.122366899e-06, No Iterations 1
C concentration =   Min(Yi) = 0  Max(Yi) = 0.007205681705
GAMG:  Solving for p, Initial residual = 0.0008954566892, Final residual = 4.210561601e-05, No Iterations 8
time step continuity errors : sum local = 0.0008660251172, global = 1.843007412e-05, cumulative = 1.48697501e-05
BiCGStab:  Solving for C, Initial residual = 0.02379735254, Final residual = 3.88795813e-06, No Iterations 1
C concentration =   Min(Yi) = 0  Max(Yi) = 0.007629281667
GAMG:  Solving for p, Initial residual = 0.001570747433, Final residual = 0.0001370990561, No Iterations 6
time step continuity errors : sum local = 0.002285167421, global = 3.815979111e-05, cumulative = 5.302954121e-05
BiCGStab:  Solving for C, Initial residual = 0.02007806804, Final residual = 2.949789303e-06, No Iterations 1
C concentration =   Min(Yi) = 0  Max(Yi) = 0.007976462727
GAMG:  Solving for p, Initial residual = 0.002638246866, Final residual = 0.0001596729799, No Iterations 6
time step continuity errors : sum local = 0.002063757549, global = 3.434611555e-05, cumulative = 8.737565676e-05
BiCGStab:  Solving for C, Initial residual = 0.01726532601, Final residual = 2.670060071e-06, No Iterations 1
C concentration =   Min(Yi) = 0  Max(Yi) = 0.008261760731
GAMG:  Solving for p, Initial residual = 0.004144358782, Final residual = 0.0001916607728, No Iterations 6
time step continuity errors : sum local = 0.001817119901, global = 3.183282488e-05, cumulative = 0.0001192084816
BiCGStab:  Solving for C, Initial residual = 0.01506171934, Final residual = 2.437520361e-06, No Iterations 1
C concentration =   Min(Yi) = 0  Max(Yi) = 0.008499624171
GAMG:  Solving for p, Initial residual = 0.006294486534, Final residual = 0.0005884936871, No Iterations 4
time step continuity errors : sum local = 0.003844432128, global = 6.58588226e-05, cumulative = 0.0001850673042
BiCGStab:  Solving for C, Initial residual = 0.0133156766, Final residual = 1.994495113e-06, No Iterations 1
C concentration =   Min(Yi) = 0  Max(Yi) = 0.008699733521
GAMG:  Solving for p, Initial residual = 0.009089485361, Final residual = 0.000706695101, No Iterations 4
time step continuity errors : sum local = 0.003062072942, global = 5.342495612e-05, cumulative = 0.0002384922604
BiCGStab:  Solving for C, Initial residual = 0.0118925687, Final residual = 1.699358935e-06, No Iterations 1
C concentration =   Min(Yi) = 0  Max(Yi) = 0.008868638459
GAMG:  Solving for p, Initial residual = 0.01368648147, Final residual = 0.0008734815528, No Iterations 4
time step continuity errors : sum local = 0.002283423438, global = 4.366014252e-05, cumulative = 0.0002821524029
BiCGStab:  Solving for C, Initial residual = 0.01072667497, Final residual = 1.567085883e-06, No Iterations 1
C concentration =   Min(Yi) = 0  Max(Yi) = 0.009011547634
GAMG:  Solving for p, Initial residual = 0.02246801878, Final residual = 0.001153009637, No Iterations 4
time step continuity errors : sum local = 0.001584912831, global = 3.472485509e-05, cumulative = 0.000316877258
BiCGStab:  Solving for C, Initial residual = 0.009757489425, Final residual = 1.364036241e-06, No Iterations 1
C concentration =   Min(Yi) = 0  Max(Yi) = 0.009132701033
GAMG:  Solving for p, Initial residual = 0.04416075827, Final residual = 0.003606243007, No Iterations 3
time step continuity errors : sum local = 0.002065908491, global = 3.58658829e-05, cumulative = 0.0003527431409
BiCGStab:  Solving for C, Initial residual = 0.008918407903, Final residual = 1.345955059e-06, No Iterations 1
C concentration =   Min(Yi) = 0  Max(Yi) = 0.009235605165
GAMG:  Solving for p, Initial residual = 0.100655092, Final residual = 0.006030960869, No Iterations 3
time step continuity errors : sum local = 0.00115937461, global = 1.760850468e-05, cumulative = 0.0003703516455
BiCGStab:  Solving for C, Initial residual = 0.00821130451, Final residual = 1.143619023e-06, No Iterations 1
C concentration =   Min(Yi) = 0  Max(Yi) = 0.009323243489
GAMG:  Solving for p, Initial residual = 0.1206567691, Final residual = 0.009749182924, No Iterations 3
time step continuity errors : sum local = 0.001162239607, global = 2.675653432e-06, cumulative = 0.000373027299
BiCGStab:  Solving for C, Initial residual = 0.007594900828, Final residual = 1.105110109e-06, No Iterations 1
C concentration =   Min(Yi) = 0  Max(Yi) = 0.009398034326
GAMG:  Solving for p, Initial residual = 0.09304524265, Final residual = 0.006845862627, No Iterations 3
time step continuity errors : sum local = 0.0007891437506, global = -5.214922773e-06, cumulative = 0.0003678123762
BiCGStab:  Solving for C, Initial residual = 0.007053433322, Final residual = 9.222284591e-07, No Iterations 1
C concentration =   Min(Yi) = 0  Max(Yi) = 0.009462051067
GAMG:  Solving for p, Initial residual = 0.0494039617, Final residual = 0.003672749735, No Iterations 4
time step continuity errors : sum local = 0.0006379396913, global = -9.028682249e-06, cumulative = 0.000358783694
BiCGStab:  Solving for C, Initial residual = 0.006573879745, Final residual = 8.697476424e-07, No Iterations 1
C concentration =   Min(Yi) = 0  Max(Yi) = 0.009517023504
GAMG:  Solving for p, Initial residual = 0.01699588142, Final residual = 0.001424153447, No Iterations 4
time step continuity errors : sum local = 0.0006459518415, global = -1.311671842e-05, cumulative = 0.0003456669755
BiCGStab:  Solving for C, Initial residual = 0.006151063816, Final residual = 7.616360297e-07, No Iterations 1
C concentration =   Min(Yi) = 0  Max(Yi) = 0.009564337938
GAMG:  Solving for p, Initial residual = 0.009467511221, Final residual = 0.0007450990077, No Iterations 4
time step continuity errors : sum local = 0.000591752458, global = -1.535711418e-05, cumulative = 0.0003303098614
BiCGStab:  Solving for C, Initial residual = 0.005774203577, Final residual = 7.342944591e-07, No Iterations 1
C concentration =   Min(Yi) = 0  Max(Yi) = 0.009605174377
GAMG:  Solving for p, Initial residual = 0.006503833808, Final residual = 0.0005045631962, No Iterations 4
time step continuity errors : sum local = 0.0005838336288, global = -1.542017021e-05, cumulative = 0.0003148896911
BiCGStab:  Solving for C, Initial residual = 0.005432181019, Final residual = 6.289578871e-07, No Iterations 1
C concentration =   Min(Yi) = 0  Max(Yi) = 0.009640516076
GAMG:  Solving for p, Initial residual = 0.004910674736, Final residual = 0.0003840050877, No Iterations 4
time step continuity errors : sum local = 0.0005826815074, global = -1.371327015e-05, cumulative = 0.000301176421
BiCGStab:  Solving for C, Initial residual = 0.005125719645, Final residual = 5.720969253e-07, No Iterations 1
C concentration =   Min(Yi) = 0  Max(Yi) = 0.009671184682
GAMG:  Solving for p, Initial residual = 0.003862389507, Final residual = 0.0002686095665, No Iterations 4
time step continuity errors : sum local = 0.0004986993069, global = -1.264005318e-05, cumulative = 0.0002885363678
BiCGStab:  Solving for C, Initial residual = 0.004847465091, Final residual = 5.241205671e-07, No Iterations 1
C concentration =   Min(Yi) = 0  Max(Yi) = 0.00969786672
GAMG:  Solving for p, Initial residual = 0.003093884619, Final residual = 0.0001872303822, No Iterations 4
time step continuity errors : sum local = 0.0004010208552, global = -1.143242653e-05, cumulative = 0.0002771039413
BiCGStab:  Solving for C, Initial residual = 0.004592991693, Final residual = 5.049376575e-07, No Iterations 1
C concentration =   Min(Yi) = 0  Max(Yi) = 0.00972114322
GAMG:  Solving for p, Initial residual = 0.002476258569, Final residual = 0.0001289665725, No Iterations 4
time step continuity errors : sum local = 0.0003050883954, global = -9.919344119e-06, cumulative = 0.0002671845972
BiCGStab:  Solving for C, Initial residual = 0.004362334408, Final residual = 4.587671913e-07, No Iterations 1
C concentration =   Min(Yi) = 0  Max(Yi) = 0.009741503383
GAMG:  Solving for p, Initial residual = 0.001955929308, Final residual = 8.843411992e-05, No Iterations 4
time step continuity errors : sum local = 0.0002235772271, global = -8.121567934e-06, cumulative = 0.0002590630292
BiCGStab:  Solving for C, Initial residual = 0.004149742679, Final residual = 4.064703773e-07, No Iterations 1
C concentration =   Min(Yi) = 0  Max(Yi) = 0.009759486849
GAMG:  Solving for p, Initial residual = 0.001514333322, Final residual = 6.366934876e-05, No Iterations 4
time step continuity errors : sum local = 0.0001677504468, global = -6.32881042e-06, cumulative = 0.0002527342188
BiCGStab:  Solving for C, Initial residual = 0.003955695494, Final residual = 3.684243556e-07, No Iterations 1
C concentration =   Min(Yi) = 0  Max(Yi) = 0.009776512482
GAMG:  Solving for p, Initial residual = 0.001150147883, Final residual = 0.0001018910046, No Iterations 3
time step continuity errors : sum local = 0.00027436057, global = -5.830576358e-06, cumulative = 0.0002469036425
BiCGStab:  Solving for C, Initial residual = 0.003777255349, Final residual = 3.521090712e-07, No Iterations 1
C concentration =   Min(Yi) = 0  Max(Yi) = 0.009791453154
GAMG:  Solving for p, Initial residual = 0.0008650459421, Final residual = 5.330046782e-05, No Iterations 4
time step continuity errors : sum local = 0.0001441237675, global = -1.148441992e-06, cumulative = 0.0002457552005
BiCGStab:  Solving for C, Initial residual = 0.003610988785, Final residual = 3.363626347e-07, No Iterations 1
C concentration =   Min(Yi) = 0  Max(Yi) = 0.009804616919
GAMG:  Solving for p, Initial residual = 0.0006996974431, Final residual = 4.13963246e-05, No Iterations 4
time step continuity errors : sum local = 0.0001118995986, global = -2.532357391e-07, cumulative = 0.0002455019647
BiCGStab:  Solving for C, Initial residual = 0.003457722341, Final residual = 3.060484679e-07, No Iterations 1
C concentration =   Min(Yi) = 0  Max(Yi) = 0.009816241544
GAMG:  Solving for p, Initial residual = 0.0006222740083, Final residual = 4.442415589e-05, No Iterations 4
time step continuity errors : sum local = 0.0001187127399, global = 7.957148148e-07, cumulative = 0.0002462976795
BiCGStab:  Solving for C, Initial residual = 0.003315428251, Final residual = 2.777319631e-07, No Iterations 1
C concentration =   Min(Yi) = 0  Max(Yi) = 0.009826534022
GAMG:  Solving for p, Initial residual = 0.0006052766674, Final residual = 4.68717452e-05, No Iterations 4
time step continuity errors : sum local = 0.0001227298007, global = 1.576275328e-06, cumulative = 0.0002478739549
BiCGStab:  Solving for C, Initial residual = 0.003183582913, Final residual = 2.716416449e-07, No Iterations 1
C concentration =   Min(Yi) = 0  Max(Yi) = 0.009835663778
GAMG:  Solving for p, Initial residual = 0.0006192391927, Final residual = 4.576523477e-05, No Iterations 4
time step continuity errors : sum local = 0.0001167688197, global = 2.538685886e-06, cumulative = 0.0002504126408
BiCGStab:  Solving for C, Initial residual = 0.003060425259, Final residual = 2.479334554e-07, No Iterations 1
C concentration =   Min(Yi) = 0  Max(Yi) = 0.009843772009
GAMG:  Solving for p, Initial residual = 0.0006372606938, Final residual = 4.718902572e-05, No Iterations 4
time step continuity errors : sum local = 0.0001171400005, global = 2.759773574e-06, cumulative = 0.0002531724143
BiCGStab:  Solving for C, Initial residual = 0.002946310646, Final residual = 2.319737505e-07, No Iterations 1
C concentration =   Min(Yi) = 0  Max(Yi) = 0.009850982478
GAMG:  Solving for p, Initial residual = 0.0006498285635, Final residual = 4.97257765e-05, No Iterations 4
time step continuity errors : sum local = 0.0001198971538, global = 2.593588482e-06, cumulative = 0.0002557660028
BiCGStab:  Solving for C, Initial residual = 0.002840443191, Final residual = 2.093384861e-07, No Iterations 1
C concentration =   Min(Yi) = 0  Max(Yi) = 0.009857399885
GAMG:  Solving for p, Initial residual = 0.0006502909137, Final residual = 4.761406783e-05, No Iterations 4
time step continuity errors : sum local = 0.0001114861407, global = 2.546091879e-06, cumulative = 0.0002583120947
BiCGStab:  Solving for C, Initial residual = 0.002739767728, Final residual = 2.110623369e-07, No Iterations 1
C concentration =   Min(Yi) = 0  Max(Yi) = 0.009863110959
GAMG:  Solving for p, Initial residual = 0.0006322685796, Final residual = 4.412359595e-05, No Iterations 4
time step continuity errors : sum local = 0.0001005579075, global = 2.516777363e-06, cumulative = 0.0002608288721
BiCGStab:  Solving for C, Initial residual = 0.002646039854, Final residual = 1.854039039e-07, No Iterations 1
C concentration =   Min(Yi) = 0  Max(Yi) = 0.009868191238
GAMG:  Solving for p, Initial residual = 0.0005972693701, Final residual = 4.06457835e-05, No Iterations 4
time step continuity errors : sum local = 9.044529901e-05, global = 2.390153417e-06, cumulative = 0.0002632190255
BiCGStab:  Solving for C, Initial residual = 0.002557934235, Final residual = 1.82567621e-07, No Iterations 1
C concentration =   Min(Yi) = 0  Max(Yi) = 0.009872706223
GAMG:  Solving for p, Initial residual = 0.0005502133714, Final residual = 3.726270203e-05, No Iterations 4
time step continuity errors : sum local = 8.125756799e-05, global = 2.211565536e-06, cumulative = 0.000265430591
BiCGStab:  Solving for C, Initial residual = 0.002475044933, Final residual = 1.64318809e-07, No Iterations 1
C concentration =   Min(Yi) = 0  Max(Yi) = 0.00987671371
GAMG:  Solving for p, Initial residual = 0.0004967523023, Final residual = 3.385565544e-05, No Iterations 4
time step continuity errors : sum local = 7.263000021e-05, global = 2.18174266e-06, cumulative = 0.0002676123337
BiCGStab:  Solving for C, Initial residual = 0.002397998472, Final residual = 1.622784547e-07, No Iterations 1
C concentration =   Min(Yi) = 0  Max(Yi) = 0.009880264205
GAMG:  Solving for p, Initial residual = 0.0004428324612, Final residual = 3.049006468e-05, No Iterations 4
time step continuity errors : sum local = 6.460531168e-05, global = 2.061044395e-06, cumulative = 0.0002696733781
BiCGStab:  Solving for C, Initial residual = 0.002323949033, Final residual = 1.424661493e-07, No Iterations 1
C concentration =   Min(Yi) = 0  Max(Yi) = 0.009883402084
GAMG:  Solving for p, Initial residual = 0.0003944379631, Final residual = 3.486217193e-05, No Iterations 4
time step continuity errors : sum local = 7.322620917e-05, global = 1.760725996e-06, cumulative = 0.0002714341041
BiCGStab:  Solving for C, Initial residual = 0.002255816263, Final residual = 1.388970087e-07, No Iterations 1
C concentration =   Min(Yi) = 0  Max(Yi) = 0.009886165778
GAMG:  Solving for p, Initial residual = 0.0003577920905, Final residual = 3.336023388e-05, No Iterations 4
time step continuity errors : sum local = 6.963133034e-05, global = 1.453518835e-06, cumulative = 0.0002728876229
BiCGStab:  Solving for C, Initial residual = 0.00219070691, Final residual = 1.301333332e-07, No Iterations 1
C concentration =   Min(Yi) = 0  Max(Yi) = 0.009888589419
GAMG:  Solving for p, Initial residual = 0.0003309263397, Final residual = 2.251420177e-05, No Iterations 4
time step continuity errors : sum local = 4.67826207e-05, global = 1.250494274e-06, cumulative = 0.0002741381172
BiCGStab:  Solving for C, Initial residual = 0.002129591287, Final residual = 1.222527586e-07, No Iterations 1
C concentration =   Min(Yi) = 0  Max(Yi) = 0.009890703332
GAMG:  Solving for p, Initial residual = 0.0003094875279, Final residual = 2.450262947e-05, No Iterations 4
time step continuity errors : sum local = 5.076567479e-05, global = 8.823477441e-07, cumulative = 0.0002750204649
BiCGStab:  Solving for C, Initial residual = 0.002071340155, Final residual = 1.189980583e-07, No Iterations 1
C concentration =   Min(Yi) = 0  Max(Yi) = 0.009892535011
GAMG:  Solving for p, Initial residual = 0.0002922397263, Final residual = 1.676348439e-05, No Iterations 4
time step continuity errors : sum local = 3.465078853e-05, global = 6.95118944e-07, cumulative = 0.0002757155839
BiCGStab:  Solving for C, Initial residual = 0.002016550704, Final residual = 1.098014615e-07, No Iterations 1
C concentration =   Min(Yi) = 0  Max(Yi) = 0.009894108685
GAMG:  Solving for p, Initial residual = 0.0002764955266, Final residual = 1.41212204e-05, No Iterations 4
time step continuity errors : sum local = 2.9142699e-05, global = 5.498513773e-07, cumulative = 0.0002762654352
BiCGStab:  Solving for C, Initial residual = 0.001964251338, Final residual = 1.068129709e-07, No Iterations 1
C concentration =   Min(Yi) = 0  Max(Yi) = 0.009895445211
GAMG:  Solving for p, Initial residual = 0.0002619942914, Final residual = 1.156620792e-05, No Iterations 4
time step continuity errors : sum local = 2.384479335e-05, global = 4.215054045e-07, cumulative = 0.0002766869406
BiCGStab:  Solving for C, Initial residual = 0.001914716061, Final residual = 1.002760367e-07, No Iterations 1
C concentration =   Min(Yi) = 0  Max(Yi) = 0.009896563438
GAMG:  Solving for p, Initial residual = 0.0002482840604, Final residual = 9.779895168e-06, No Iterations 4
time step continuity errors : sum local = 2.014439122e-05, global = 3.296922282e-07, cumulative = 0.0002770166329
BiCGStab:  Solving for C, Initial residual = 0.001868030064, Final residual = 9.681079996e-08, No Iterations 1
C concentration =   Min(Yi) = 0  Max(Yi) = 0.009897480222
GAMG:  Solving for p, Initial residual = 0.0002352516333, Final residual = 9.006659452e-06, No Iterations 4
time step continuity errors : sum local = 1.853488666e-05, global = 2.726142418e-07, cumulative = 0.0002772892471
BiCGStab:  Solving for C, Initial residual = 0.001823390272, Final residual = 9.25597611e-08, No Iterations 1
C concentration =   Min(Yi) = 0  Max(Yi) = 0.009898210587
GAMG:  Solving for p, Initial residual = 0.000223137686, Final residual = 2.225437799e-05, No Iterations 3
time step continuity errors : sum local = 4.574998678e-05, global = 2.301930399e-07, cumulative = 0.0002775194402
BiCGStab:  Solving for C, Initial residual = 0.00178122506, Final residual = 8.932684022e-08, No Iterations 1
C concentration =   Min(Yi) = 0  Max(Yi) = 0.009898766987
GAMG:  Solving for p, Initial residual = 0.000210771873, Final residual = 9.876155597e-06, No Iterations 4
time step continuity errors : sum local = 2.027826543e-05, global = 1.586702641e-07, cumulative = 0.0002776781104
BiCGStab:  Solving for C, Initial residual = 0.001740920853, Final residual = 8.334921874e-08, No Iterations 1
C concentration =   Min(Yi) = 0  Max(Yi) = 0.009899163326
GAMG:  Solving for p, Initial residual = 0.0002021045054, Final residual = 1.011546875e-05, No Iterations 4
time step continuity errors : sum local = 2.073197682e-05, global = 1.607821876e-07, cumulative = 0.0002778388926
BiCGStab:  Solving for C, Initial residual = 0.00170235725, Final residual = 8.149603213e-08, No Iterations 1
C concentration =   Min(Yi) = 0  Max(Yi) = 0.009899409712
GAMG:  Solving for p, Initial residual = 0.0001952554224, Final residual = 1.87401167e-05, No Iterations 3
time step continuity errors : sum local = 3.83286951e-05, global = 2.349644846e-07, cumulative = 0.0002780738571
BiCGStab:  Solving for C, Initial residual = 0.001665756156, Final residual = 7.774824084e-08, No Iterations 1
C concentration =   Min(Yi) = 0  Max(Yi) = 0.009899514998
GAMG:  Solving for p, Initial residual = 0.0001890185502, Final residual = 1.225305972e-05, No Iterations 4
time step continuity errors : sum local = 2.500853912e-05, global = 1.501370065e-07, cumulative = 0.0002782239941
BiCGStab:  Solving for C, Initial residual = 0.001630847795, Final residual = 7.485749712e-08, No Iterations 1
C concentration =   Min(Yi) = 0  Max(Yi) = 0.009899489939
GAMG:  Solving for p, Initial residual = 0.0001849393125, Final residual = 1.248938319e-05, No Iterations 4
time step continuity errors : sum local = 2.541722687e-05, global = 1.723373028e-07, cumulative = 0.0002783963314
BiCGStab:  Solving for C, Initial residual = 0.001597350665, Final residual = 7.371921592e-08, No Iterations 1
C concentration =   Min(Yi) = 0  Max(Yi) = 0.009899341622
GAMG:  Solving for p, Initial residual = 0.0001818168958, Final residual = 1.267890349e-05, No Iterations 4
time step continuity errors : sum local = 2.572473858e-05, global = 2.001625281e-07, cumulative = 0.0002785964939
BiCGStab:  Solving for C, Initial residual = 0.001565441534, Final residual = 7.149906597e-08, No Iterations 1
C concentration =   Min(Yi) = 0  Max(Yi) = 0.009899077341
GAMG:  Solving for p, Initial residual = 0.0001790557574, Final residual = 1.327111694e-05, No Iterations 4
time step continuity errors : sum local = 2.684223253e-05, global = 2.286496858e-07, cumulative = 0.0002788251436
BiCGStab:  Solving for C, Initial residual = 0.001535135981, Final residual = 6.924831783e-08, No Iterations 1
C concentration =   Min(Yi) = 0  Max(Yi) = 0.009898703744
GAMG:  Solving for p, Initial residual = 0.0001763511813, Final residual = 1.328264449e-05, No Iterations 4
time step continuity errors : sum local = 2.678006361e-05, global = 2.567595867e-07, cumulative = 0.0002790819032
BiCGStab:  Solving for C, Initial residual = 0.001506258127, Final residual = 6.67973297e-08, No Iterations 1
C concentration =   Min(Yi) = 0  Max(Yi) = 0.009898226902
GAMG:  Solving for p, Initial residual = 0.0001734888481, Final residual = 1.331497213e-05, No Iterations 4
time step continuity errors : sum local = 2.67594423e-05, global = 2.82573155e-07, cumulative = 0.0002793644764
BiCGStab:  Solving for C, Initial residual = 0.001478191463, Final residual = 6.503051475e-08, No Iterations 1
C concentration =   Min(Yi) = 0  Max(Yi) = 0.009897652397
GAMG:  Solving for p, Initial residual = 0.0001704730685, Final residual = 1.307784544e-05, No Iterations 4
time step continuity errors : sum local = 2.619932949e-05, global = 3.053588152e-07, cumulative = 0.0002796698352
BiCGStab:  Solving for C, Initial residual = 0.001451543198, Final residual = 6.32169929e-08, No Iterations 1
C concentration =   Min(Yi) = 0  Max(Yi) = 0.009896985367
GAMG:  Solving for p, Initial residual = 0.0001673153106, Final residual = 1.283383917e-05, No Iterations 4
time step continuity errors : sum local = 2.563004606e-05, global = 3.233991371e-07, cumulative = 0.0002799932343
BiCGStab:  Solving for C, Initial residual = 0.001425761132, Final residual = 6.170942804e-08, No Iterations 1
C concentration =   Min(Yi) = 0  Max(Yi) = 0.009896230556
GAMG:  Solving for p, Initial residual = 0.0001640807835, Final residual = 1.239490443e-05, No Iterations 4
time step continuity errors : sum local = 2.467773027e-05, global = 3.365719203e-07, cumulative = 0.0002803298062
BiCGStab:  Solving for C, Initial residual = 0.001401233671, Final residual = 6.01800147e-08, No Iterations 1
C concentration =   Min(Yi) = 0  Max(Yi) = 0.009895392351
GAMG:  Solving for p, Initial residual = 0.0001608136926, Final residual = 1.20751714e-05, No Iterations 4
time step continuity errors : sum local = 2.396974467e-05, global = 3.47472546e-07, cumulative = 0.0002806772788
BiCGStab:  Solving for C, Initial residual = 0.001377746429, Final residual = 5.865767043e-08, No Iterations 1
C concentration =   Min(Yi) = 0  Max(Yi) = 0.009894474816
GAMG:  Solving for p, Initial residual = 0.0001575817598, Final residual = 1.414244704e-05, No Iterations 3
time step continuity errors : sum local = 2.799283309e-05, global = 5.160512928e-07, cumulative = 0.0002811933301
BiCGStab:  Solving for C, Initial residual = 0.001354868531, Final residual = 5.707030229e-08, No Iterations 1
C concentration =   Min(Yi) = 0  Max(Yi) = 0.009893480579
GAMG:  Solving for p, Initial residual = 0.0001521491077, Final residual = 5.590784898e-06, No Iterations 5
time step continuity errors : sum local = 1.104225796e-05, global = 2.625401425e-07, cumulative = 0.0002814558702
BiCGStab:  Solving for C, Initial residual = 0.001333187961, Final residual = 5.582860815e-08, No Iterations 1
C concentration =   Min(Yi) = 0  Max(Yi) = 0.009892415182
GAMG:  Solving for p, Initial residual = 0.0001491322812, Final residual = 1.393204422e-05, No Iterations 4
time step continuity errors : sum local = 2.742944929e-05, global = 2.730407719e-07, cumulative = 0.000281728911
BiCGStab:  Solving for C, Initial residual = 0.001312248558, Final residual = 5.459592397e-08, No Iterations 1
C concentration =   Min(Yi) = 0  Max(Yi) = 0.009892831282
GAMG:  Solving for p, Initial residual = 0.0001469851993, Final residual = 1.230467843e-05, No Iterations 4
time step continuity errors : sum local = 2.415583351e-05, global = 2.834075758e-07, cumulative = 0.0002820123186
BiCGStab:  Solving for C, Initial residual = 0.001292014089, Final residual = 5.346218404e-08, No Iterations 1
C concentration =   Min(Yi) = 0  Max(Yi) = 0.009895127195
GAMG:  Solving for p, Initial residual = 0.0001449056362, Final residual = 1.095180629e-05, No Iterations 4
time step continuity errors : sum local = 2.144414369e-05, global = 3.013488739e-07, cumulative = 0.0002823136674
BiCGStab:  Solving for C, Initial residual = 0.001272680381, Final residual = 5.230225717e-08, No Iterations 1
C concentration =   Min(Yi) = 0  Max(Yi) = 0.009897313617
GAMG:  Solving for p, Initial residual = 0.0001426239593, Final residual = 9.5274472e-06, No Iterations 4
time step continuity errors : sum local = 1.861127841e-05, global = 3.102312628e-07, cumulative = 0.0002826238987
BiCGStab:  Solving for C, Initial residual = 0.001254155432, Final residual = 5.12936933e-08, No Iterations 1
C concentration =   Min(Yi) = 0  Max(Yi) = 0.009899397219
GAMG:  Solving for p, Initial residual = 0.000140081968, Final residual = 8.789363538e-06, No Iterations 4
time step continuity errors : sum local = 1.71319974e-05, global = 3.139391834e-07, cumulative = 0.0002829378379
BiCGStab:  Solving for C, Initial residual = 0.001236078033, Final residual = 5.023394956e-08, No Iterations 1
C concentration =   Min(Yi) = 0  Max(Yi) = 0.009901384151
GAMG:  Solving for p, Initial residual = 0.000137434644, Final residual = 8.327588859e-06, No Iterations 4
time step continuity errors : sum local = 1.619833453e-05, global = 3.145635373e-07, cumulative = 0.0002832524014
BiCGStab:  Solving for C, Initial residual = 0.001218641608, Final residual = 4.924116417e-08, No Iterations 1
C concentration =   Min(Yi) = 0  Max(Yi) = 0.009903280084
GAMG:  Solving for p, Initial residual = 0.0001347834242, Final residual = 8.090229303e-06, No Iterations 4
time step continuity errors : sum local = 1.570531023e-05, global = 3.112827503e-07, cumulative = 0.0002835636842
BiCGStab:  Solving for C, Initial residual = 0.001201945625, Final residual = 4.845058584e-08, No Iterations 1
C concentration =   Min(Yi) = 0  Max(Yi) = 0.009905090259
GAMG:  Solving for p, Initial residual = 0.0001322120736, Final residual = 8.308568855e-06, No Iterations 4
time step continuity errors : sum local = 1.609782356e-05, global = 3.09838281e-07, cumulative = 0.0002838735224
BiCGStab:  Solving for C, Initial residual = 0.001185835416, Final residual = 4.768149436e-08, No Iterations 1
C concentration =   Min(Yi) = 0  Max(Yi) = 0.00990681958
GAMG:  Solving for p, Initial residual = 0.0001297890668, Final residual = 8.28608287e-06, No Iterations 4
time step continuity errors : sum local = 1.60235944e-05, global = 3.005897382e-07, cumulative = 0.0002841741122
BiCGStab:  Solving for C, Initial residual = 0.001170188801, Final residual = 4.668769367e-08, No Iterations 1
C concentration =   Min(Yi) = 0  Max(Yi) = 0.009908716136
GAMG:  Solving for p, Initial residual = 0.0001274923195, Final residual = 8.286881045e-06, No Iterations 4
time step continuity errors : sum local = 1.599469616e-05, global = 2.896621414e-07, cumulative = 0.0002844637743
BiCGStab:  Solving for C, Initial residual = 0.001154985752, Final residual = 4.597947314e-08, No Iterations 1
C concentration =   Min(Yi) = 0  Max(Yi) = 0.009910959005
GAMG:  Solving for p, Initial residual = 0.000125320772, Final residual = 8.27543879e-06, No Iterations 4
time step continuity errors : sum local = 1.594237316e-05, global = 2.778122166e-07, cumulative = 0.0002847415865
BiCGStab:  Solving for C, Initial residual = 0.001140414531, Final residual = 4.535767406e-08, No Iterations 1
C concentration =   Min(Yi) = 0  Max(Yi) = 0.009913141073
GAMG:  Solving for p, Initial residual = 0.0001232652413, Final residual = 8.236206996e-06, No Iterations 4
time step continuity errors : sum local = 1.583688401e-05, global = 2.654778816e-07, cumulative = 0.0002850070644
BiCGStab:  Solving for C, Initial residual = 0.001126219827, Final residual = 4.472833993e-08, No Iterations 1
C concentration =   Min(Yi) = 0  Max(Yi) = 0.009915253699
GAMG:  Solving for p, Initial residual = 0.0001213071581, Final residual = 8.178469143e-06, No Iterations 4
time step continuity errors : sum local = 1.5696423e-05, global = 2.534014918e-07, cumulative = 0.0002852604659
BiCGStab:  Solving for C, Initial residual = 0.001112529081, Final residual = 4.402836555e-08, No Iterations 1
C concentration =   Min(Yi) = 0  Max(Yi) = 0.009917281661
GAMG:  Solving for p, Initial residual = 0.0001194283244, Final residual = 8.113312847e-06, No Iterations 4
time step continuity errors : sum local = 1.554253237e-05, global = 2.416311848e-07, cumulative = 0.0002855020971
BiCGStab:  Solving for C, Initial residual = 0.001099035315, Final residual = 4.336596487e-08, No Iterations 1
C concentration =   Min(Yi) = 0  Max(Yi) = 0.009919223204
GAMG:  Solving for p, Initial residual = 0.0001176131012, Final residual = 8.053659097e-06, No Iterations 4
time step continuity errors : sum local = 1.54000854e-05, global = 2.301545174e-07, cumulative = 0.0002857322516
BiCGStab:  Solving for C, Initial residual = 0.001086061429, Final residual = 4.277049701e-08, No Iterations 1
C concentration =   Min(Yi) = 0  Max(Yi) = 0.009921079715
GAMG:  Solving for p, Initial residual = 0.000115851822, Final residual = 8.009113589e-06, No Iterations 4
time step continuity errors : sum local = 1.528742092e-05, global = 2.191657048e-07, cumulative = 0.0002859514173
BiCGStab:  Solving for C, Initial residual = 0.001073543463, Final residual = 4.222852341e-08, No Iterations 1
C concentration =   Min(Yi) = 0  Max(Yi) = 0.009922853678
GAMG:  Solving for p, Initial residual = 0.000114136227, Final residual = 7.980816564e-06, No Iterations 4
time step continuity errors : sum local = 1.520661098e-05, global = 2.087945167e-07, cumulative = 0.0002861602118
BiCGStab:  Solving for C, Initial residual = 0.001061455528, Final residual = 4.174856363e-08, No Iterations 1
C concentration =   Min(Yi) = 0  Max(Yi) = 0.009924548339
GAMG:  Solving for p, Initial residual = 0.0001124623365, Final residual = 7.96394104e-06, No Iterations 4
time step continuity errors : sum local = 1.514834071e-05, global = 1.991444422e-07, cumulative = 0.0002863593563
BiCGStab:  Solving for C, Initial residual = 0.001049630635, Final residual = 4.124872378e-08, No Iterations 1
C concentration =   Min(Yi) = 0  Max(Yi) = 0.009926167388
GAMG:  Solving for p, Initial residual = 0.00011082454, Final residual = 7.949961291e-06, No Iterations 4
time step continuity errors : sum local = 1.509633385e-05, global = 1.902551403e-07, cumulative = 0.0002865496114
BiCGStab:  Solving for C, Initial residual = 0.001038071447, Final residual = 4.077367187e-08, No Iterations 1
C concentration =   Min(Yi) = 0  Max(Yi) = 0.009927714709
GAMG:  Solving for p, Initial residual = 0.0001092204681, Final residual = 7.928815186e-06, No Iterations 4
time step continuity errors : sum local = 1.503149391e-05, global = 1.820486264e-07, cumulative = 0.00028673166
BiCGStab:  Solving for C, Initial residual = 0.001026892701, Final residual = 4.029606021e-08, No Iterations 1
C concentration =   Min(Yi) = 0  Max(Yi) = 0.009929194206
GAMG:  Solving for p, Initial residual = 0.0001076462582, Final residual = 7.90213535e-06, No Iterations 4
time step continuity errors : sum local = 1.495696517e-05, global = 1.750952581e-07, cumulative = 0.0002869067553
BiCGStab:  Solving for C, Initial residual = 0.001015983094, Final residual = 3.980044485e-08, No Iterations 1
C concentration =   Min(Yi) = 0  Max(Yi) = 0.009930609688
GAMG:  Solving for p, Initial residual = 0.0001061031437, Final residual = 7.815935134e-06, No Iterations 4
time step continuity errors : sum local = 1.477077076e-05, global = 1.700303171e-07, cumulative = 0.0002870767856
BiCGStab:  Solving for C, Initial residual = 0.001005336333, Final residual = 3.934402141e-08, No Iterations 1
C concentration =   Min(Yi) = 0  Max(Yi) = 0.0099319648
GAMG:  Solving for p, Initial residual = 0.0001045776465, Final residual = 7.76678155e-06, No Iterations 4
time step continuity errors : sum local = 1.465566068e-05, global = 1.643298807e-07, cumulative = 0.0002872411155
BiCGStab:  Solving for C, Initial residual = 0.0009951431233, Final residual = 3.894444355e-08, No Iterations 1
C concentration =   Min(Yi) = 0  Max(Yi) = 0.009933262985
GAMG:  Solving for p, Initial residual = 0.000103080123, Final residual = 7.701073865e-06, No Iterations 4
time step continuity errors : sum local = 1.451019342e-05, global = 1.592418862e-07, cumulative = 0.0002874003574
BiCGStab:  Solving for C, Initial residual = 0.0009849961435, Final residual = 3.849647139e-08, No Iterations 1
C concentration =   Min(Yi) = 0  Max(Yi) = 0.009934507469
GAMG:  Solving for p, Initial residual = 0.0001016071186, Final residual = 7.620936434e-06, No Iterations 4
time step continuity errors : sum local = 1.433846146e-05, global = 1.546833419e-07, cumulative = 0.0002875550407
BiCGStab:  Solving for C, Initial residual = 0.0009751782369, Final residual = 3.809961881e-08, No Iterations 1
C concentration =   Min(Yi) = 0  Max(Yi) = 0.009935701259
GAMG:  Solving for p, Initial residual = 0.0001001583468, Final residual = 7.518044672e-06, No Iterations 4
time step continuity errors : sum local = 1.412489374e-05, global = 1.507505999e-07, cumulative = 0.0002877057913
BiCGStab:  Solving for C, Initial residual = 0.0009656622856, Final residual = 3.772742067e-08, No Iterations 1
C concentration =   Min(Yi) = 0  Max(Yi) = 0.009936847152
GAMG:  Solving for p, Initial residual = 9.873227577e-05, Final residual = 7.400174681e-06, No Iterations 4
time step continuity errors : sum local = 1.388422183e-05, global = 1.472373726e-07, cumulative = 0.0002878530287
BiCGStab:  Solving for C, Initial residual = 0.0009562529779, Final residual = 3.735156427e-08, No Iterations 1
C concentration =   Min(Yi) = 0  Max(Yi) = 0.009937947742
GAMG:  Solving for p, Initial residual = 9.732822304e-05, Final residual = 7.268044902e-06, No Iterations 4
time step continuity errors : sum local = 1.361785946e-05, global = 1.441568502e-07, cumulative = 0.0002879971856
BiCGStab:  Solving for C, Initial residual = 0.0009471404068, Final residual = 3.696815243e-08, No Iterations 1
C concentration =   Min(Yi) = 0  Max(Yi) = 0.009939005438
GAMG:  Solving for p, Initial residual = 9.596084098e-05, Final residual = 7.150025535e-06, No Iterations 4
time step continuity errors : sum local = 1.337895683e-05, global = 1.414929099e-07, cumulative = 0.0002881386785
BiCGStab:  Solving for C, Initial residual = 0.0009382398248, Final residual = 3.66099268e-08, No Iterations 1
C concentration =   Min(Yi) = 0  Max(Yi) = 0.009940022473
GAMG:  Solving for p, Initial residual = 9.462830123e-05, Final residual = 7.03719607e-06, No Iterations 4
time step continuity errors : sum local = 1.315070035e-05, global = 1.39220182e-07, cumulative = 0.0002882778986
BiCGStab:  Solving for C, Initial residual = 0.0009294180399, Final residual = 3.62748633e-08, No Iterations 1
C concentration =   Min(Yi) = 0  Max(Yi) = 0.009941000926
GAMG:  Solving for p, Initial residual = 9.331827397e-05, Final residual = 6.906058482e-06, No Iterations 4
time step continuity errors : sum local = 1.288916467e-05, global = 1.373110554e-07, cumulative = 0.0002884152097
BiCGStab:  Solving for C, Initial residual = 0.0009209081859, Final residual = 3.596035403e-08, No Iterations 1
C concentration =   Min(Yi) = 0  Max(Yi) = 0.009941942727
GAMG:  Solving for p, Initial residual = 9.202899509e-05, Final residual = 9.050070955e-06, No Iterations 4
time step continuity errors : sum local = 1.686949667e-05, global = 1.315282164e-07, cumulative = 0.0002885467379
BiCGStab:  Solving for C, Initial residual = 0.0009125566838, Final residual = 3.56275468e-08, No Iterations 1
C concentration =   Min(Yi) = 0  Max(Yi) = 0.009942849679
GAMG:  Solving for p, Initial residual = 9.096838749e-05, Final residual = 8.801068386e-06, No Iterations 4
time step continuity errors : sum local = 1.63846762e-05, global = 1.313219167e-07, cumulative = 0.0002886780598
BiCGStab:  Solving for C, Initial residual = 0.0009044290591, Final residual = 3.532633192e-08, No Iterations 1
C concentration =   Min(Yi) = 0  Max(Yi) = 0.009943723457

STEADYSTATE: not converged within 100 iterations
ExecutionTime = 7.2 s  ClockTime = 7 s

Courant Number mean: 1.508535006 max: 43.85755309 velocity magnitude: 0.0002311754856
Mesh Courant Number mean: 0 max: 0
deltaT = 7.195105255
Time = 929.6437549

PCG:  Solving for cellMotionUx, Initial residual = 0, Final residual = 0, No Iterations 0
PCG:  Solving for cellMotionUy, Initial residual = 0, Final residual = 0, No Iterations 0

STEADYSTATE: convergence criteria
    field p	 tolerance 1e-06
    field U	 tolerance 1e-06
    field C	 tolerance 1e-06

GAMG:  Solving for p, Initial residual = 8.998207018e-05, Final residual = 8.573713114e-06, No Iterations 4
time step continuity errors : sum local = 1.912109701e-05, global = 1.581023056e-07, cumulative = 0.0002888361621
BiCGStab:  Solving for C, Initial residual = 0.0008965742535, Final residual = 3.511338092e-08, No Iterations 1
C concentration =   Min(Yi) = 0  Max(Yi) = 0.00994456562
GAMG:  Solving for p, Initial residual = 8.890153794e-05, Final residual = 8.302818106e-06, No Iterations 4
time step continuity errors : sum local = 1.849497779e-05, global = 1.578638559e-07, cumulative = 0.000288994026
BiCGStab:  Solving for C, Initial residual = 0.0008887591309, Final residual = 3.481472863e-08, No Iterations 1
C concentration =   Min(Yi) = 0  Max(Yi) = 0.009945377639
GAMG:  Solving for p, Initial residual = 8.779116728e-05, Final residual = 8.065029398e-06, No Iterations 4
time step continuity errors : sum local = 1.794445626e-05, global = 1.572398657e-07, cumulative = 0.0002891512659
BiCGStab:  Solving for C, Initial residual = 0.0008811125111, Final residual = 3.453788842e-08, No Iterations 1
C concentration =   Min(Yi) = 0  Max(Yi) = 0.009946161004
GAMG:  Solving for p, Initial residual = 8.665843695e-05, Final residual = 7.806399226e-06, No Iterations 4
time step continuity errors : sum local = 1.734924263e-05, global = 1.564060923e-07, cumulative = 0.000289307672
BiCGStab:  Solving for C, Initial residual = 0.0008736502786, Final residual = 3.428661356e-08, No Iterations 1
C concentration =   Min(Yi) = 0  Max(Yi) = 0.009946917191
GAMG:  Solving for p, Initial residual = 8.550682814e-05, Final residual = 7.583085005e-06, No Iterations 4
time step continuity errors : sum local = 1.683408186e-05, global = 1.538171847e-07, cumulative = 0.0002894614891
BiCGStab:  Solving for C, Initial residual = 0.00086632122, Final residual = 3.405094675e-08, No Iterations 1
C concentration =   Min(Yi) = 0  Max(Yi) = 0.00994764745
GAMG:  Solving for p, Initial residual = 8.435396893e-05, Final residual = 7.345411614e-06, No Iterations 4
time step continuity errors : sum local = 1.628845093e-05, global = 1.52519106e-07, cumulative = 0.0002896140082
BiCGStab:  Solving for C, Initial residual = 0.0008591105445, Final residual = 3.384695059e-08, No Iterations 1
C concentration =   Min(Yi) = 0  Max(Yi) = 0.009948354253
GAMG:  Solving for p, Initial residual = 8.320445661e-05, Final residual = 7.127406121e-06, No Iterations 4
time step continuity errors : sum local = 1.578781187e-05, global = 1.508212008e-07, cumulative = 0.0002897648294
BiCGStab:  Solving for C, Initial residual = 0.0008521008551, Final residual = 3.364325594e-08, No Iterations 1
C concentration =   Min(Yi) = 0  Max(Yi) = 0.0099490392
GAMG:  Solving for p, Initial residual = 8.207237939e-05, Final residual = 6.974004845e-06, No Iterations 4
time step continuity errors : sum local = 1.543140953e-05, global = 1.492082132e-07, cumulative = 0.0002899140377
BiCGStab:  Solving for C, Initial residual = 0.0008451894506, Final residual = 3.34460317e-08, No Iterations 1
C concentration =   Min(Yi) = 0  Max(Yi) = 0.009949702958
GAMG:  Solving for p, Initial residual = 8.096864763e-05, Final residual = 6.797896793e-06, No Iterations 4
time step continuity errors : sum local = 1.502576516e-05, global = 1.468942102e-07, cumulative = 0.0002900609319
BiCGStab:  Solving for C, Initial residual = 0.0008383950927, Final residual = 3.325857778e-08, No Iterations 1
C concentration =   Min(Yi) = 0  Max(Yi) = 0.009950345943
GAMG:  Solving for p, Initial residual = 7.989273735e-05, Final residual = 6.641177987e-06, No Iterations 4
time step continuity errors : sum local = 1.466397651e-05, global = 1.4428878e-07, cumulative = 0.0002902052206
BiCGStab:  Solving for C, Initial residual = 0.0008317983824, Final residual = 3.307142971e-08, No Iterations 1
C concentration =   Min(Yi) = 0  Max(Yi) = 0.009950968537
GAMG:  Solving for p, Initial residual = 7.884682119e-05, Final residual = 6.502388855e-06, No Iterations 4
time step continuity errors : sum local = 1.434267716e-05, global = 1.414426771e-07, cumulative = 0.0002903466633
BiCGStab:  Solving for C, Initial residual = 0.0008252952045, Final residual = 3.292576048e-08, No Iterations 1
C concentration =   Min(Yi) = 0  Max(Yi) = 0.009951571167
GAMG:  Solving for p, Initial residual = 7.783286784e-05, Final residual = 6.379913277e-06, No Iterations 4
time step continuity errors : sum local = 1.405817622e-05, global = 1.384156279e-07, cumulative = 0.000290485079
BiCGStab:  Solving for C, Initial residual = 0.0008189416289, Final residual = 3.271462457e-08, No Iterations 1
C concentration =   Min(Yi) = 0  Max(Yi) = 0.009952165389
GAMG:  Solving for p, Initial residual = 7.684910642e-05, Final residual = 6.271833176e-06, No Iterations 4
time step continuity errors : sum local = 1.380613731e-05, global = 1.352613401e-07, cumulative = 0.0002906203403
BiCGStab:  Solving for C, Initial residual = 0.0008126632407, Final residual = 3.260589827e-08, No Iterations 1
C concentration =   Min(Yi) = 0  Max(Yi) = 0.009952744224
GAMG:  Solving for p, Initial residual = 7.589398924e-05, Final residual = 6.176430719e-06, No Iterations 4
time step continuity errors : sum local = 1.358268378e-05, global = 1.320357763e-07, cumulative = 0.0002907523761
BiCGStab:  Solving for C, Initial residual = 0.0008064950755, Final residual = 3.248550112e-08, No Iterations 1
C concentration =   Min(Yi) = 0  Max(Yi) = 0.009953492398
GAMG:  Solving for p, Initial residual = 7.496392598e-05, Final residual = 6.091781467e-06, No Iterations 4
time step continuity errors : sum local = 1.338350237e-05, global = 1.287906343e-07, cumulative = 0.0002908811667
BiCGStab:  Solving for C, Initial residual = 0.0008004281338, Final residual = 3.236652355e-08, No Iterations 1
C concentration =   Min(Yi) = 0  Max(Yi) = 0.009954318169
GAMG:  Solving for p, Initial residual = 7.405833388e-05, Final residual = 6.016112479e-06, No Iterations 4
time step continuity errors : sum local = 1.320462575e-05, global = 1.255698431e-07, cumulative = 0.0002910067365
BiCGStab:  Solving for C, Initial residual = 0.0007944881135, Final residual = 3.225249934e-08, No Iterations 1
C concentration =   Min(Yi) = 0  Max(Yi) = 0.00995510576
GAMG:  Solving for p, Initial residual = 7.317388579e-05, Final residual = 5.947456752e-06, No Iterations 4
time step continuity errors : sum local = 1.304167831e-05, global = 1.224113616e-07, cumulative = 0.0002911291479
BiCGStab:  Solving for C, Initial residual = 0.0007885965095, Final residual = 3.200308338e-08, No Iterations 1
C concentration =   Min(Yi) = 0  Max(Yi) = 0.009955858996
GAMG:  Solving for p, Initial residual = 7.230929789e-05, Final residual = 5.884166104e-06, No Iterations 4
time step continuity errors : sum local = 1.289099851e-05, global = 1.193445895e-07, cumulative = 0.0002912484925
BiCGStab:  Solving for C, Initial residual = 0.000782827046, Final residual = 3.190317811e-08, No Iterations 1
C concentration =   Min(Yi) = 0  Max(Yi) = 0.009956580995
GAMG:  Solving for p, Initial residual = 7.14622422e-05, Final residual = 5.796742594e-06, No Iterations 4
time step continuity errors : sum local = 1.268797755e-05, global = 1.180713311e-07, cumulative = 0.0002913665638
BiCGStab:  Solving for C, Initial residual = 0.0007771544632, Final residual = 3.180295173e-08, No Iterations 1
C concentration =   Min(Yi) = 0  Max(Yi) = 0.009957274347
GAMG:  Solving for p, Initial residual = 7.062684388e-05, Final residual = 5.741564011e-06, No Iterations 4
time step continuity errors : sum local = 1.255606316e-05, global = 1.152293427e-07, cumulative = 0.0002914817932
BiCGStab:  Solving for C, Initial residual = 0.0007715733048, Final residual = 3.172677364e-08, No Iterations 1
C concentration =   Min(Yi) = 0  Max(Yi) = 0.009957941245
GAMG:  Solving for p, Initial residual = 6.980832807e-05, Final residual = 5.687233706e-06, No Iterations 4
time step continuity errors : sum local = 1.242641854e-05, global = 1.125195815e-07, cumulative = 0.0002915943128
BiCGStab:  Solving for C, Initial residual = 0.0007660841672, Final residual = 3.167637795e-08, No Iterations 1
C concentration =   Min(Yi) = 0  Max(Yi) = 0.009958583566
GAMG:  Solving for p, Initial residual = 6.900473812e-05, Final residual = 5.632723715e-06, No Iterations 4
time step continuity errors : sum local = 1.229678183e-05, global = 1.099450355e-07, cumulative = 0.0002917042578
BiCGStab:  Solving for C, Initial residual = 0.0007606668213, Final residual = 3.162579123e-08, No Iterations 1
C concentration =   Min(Yi) = 0  Max(Yi) = 0.009959202939
GAMG:  Solving for p, Initial residual = 6.821430222e-05, Final residual = 5.577081046e-06, No Iterations 4
time step continuity errors : sum local = 1.216506433e-05, global = 1.07503229e-07, cumulative = 0.000291811761
BiCGStab:  Solving for C, Initial residual = 0.0007553861297, Final residual = 3.158748125e-08, No Iterations 1
C concentration =   Min(Yi) = 0  Max(Yi) = 0.009959800793
GAMG:  Solving for p, Initial residual = 6.743651929e-05, Final residual = 5.51975855e-06, No Iterations 4
time step continuity errors : sum local = 1.203006779e-05, global = 1.051898045e-07, cumulative = 0.0002919169508
BiCGStab:  Solving for C, Initial residual = 0.0007501929559, Final residual = 3.156349999e-08, No Iterations 1
C concentration =   Min(Yi) = 0  Max(Yi) = 0.009960378389
GAMG:  Solving for p, Initial residual = 6.667057267e-05, Final residual = 5.460522136e-06, No Iterations 4
time step continuity errors : sum local = 1.189128078e-05, global = 1.030018273e-07, cumulative = 0.0002920199526
BiCGStab:  Solving for C, Initial residual = 0.0007450447107, Final residual = 3.152822857e-08, No Iterations 1
C concentration =   Min(Yi) = 0  Max(Yi) = 0.009960936854
GAMG:  Solving for p, Initial residual = 6.591628297e-05, Final residual = 5.398840835e-06, No Iterations 4
time step continuity errors : sum local = 1.174754665e-05, global = 1.009315813e-07, cumulative = 0.0002921208842
BiCGStab:  Solving for C, Initial residual = 0.0007399905418, Final residual = 3.152713356e-08, No Iterations 1
C concentration =   Min(Yi) = 0  Max(Yi) = 0.009961477199
GAMG:  Solving for p, Initial residual = 6.517240131e-05, Final residual = 5.33475207e-06, No Iterations 4
time step continuity errors : sum local = 1.159894873e-05, global = 9.897263973e-08, cumulative = 0.0002922198569
BiCGStab:  Solving for C, Initial residual = 0.0007349893209, Final residual = 3.153049538e-08, No Iterations 1
C concentration =   Min(Yi) = 0  Max(Yi) = 0.009962000338
GAMG:  Solving for p, Initial residual = 6.443974272e-05, Final residual = 5.267949838e-06, No Iterations 4
time step continuity errors : sum local = 1.144482424e-05, global = 9.711830166e-08, cumulative = 0.0002923169752
BiCGStab:  Solving for C, Initial residual = 0.0007300876239, Final residual = 3.153179021e-08, No Iterations 1
C concentration =   Min(Yi) = 0  Max(Yi) = 0.009962507106
GAMG:  Solving for p, Initial residual = 6.371738151e-05, Final residual = 5.198632714e-06, No Iterations 4
time step continuity errors : sum local = 1.128560792e-05, global = 9.536368468e-08, cumulative = 0.0002924123389
BiCGStab:  Solving for C, Initial residual = 0.0007251956516, Final residual = 3.155858761e-08, No Iterations 1
C concentration =   Min(Yi) = 0  Max(Yi) = 0.009962998265
GAMG:  Solving for p, Initial residual = 6.300581663e-05, Final residual = 5.126585426e-06, No Iterations 4
time step continuity errors : sum local = 1.112083623e-05, global = 9.370442225e-08, cumulative = 0.0002925060433
BiCGStab:  Solving for C, Initial residual = 0.0007204218531, Final residual = 3.162372613e-08, No Iterations 1
C concentration =   Min(Yi) = 0  Max(Yi) = 0.009963474517
GAMG:  Solving for p, Initial residual = 6.230390465e-05, Final residual = 5.051990219e-06, No Iterations 4
time step continuity errors : sum local = 1.095090753e-05, global = 9.213250638e-08, cumulative = 0.0002925981758
BiCGStab:  Solving for C, Initial residual = 0.0007157058848, Final residual = 3.166463757e-08, No Iterations 1
C concentration =   Min(Yi) = 0  Max(Yi) = 0.009963936511
GAMG:  Solving for p, Initial residual = 6.161345881e-05, Final residual = 4.974697717e-06, No Iterations 4
time step continuity errors : sum local = 1.07755012e-05, global = 9.064542287e-08, cumulative = 0.0002926888212
BiCGStab:  Solving for C, Initial residual = 0.0007111105018, Final residual = 3.173105463e-08, No Iterations 1
C concentration =   Min(Yi) = 0  Max(Yi) = 0.009964384851
GAMG:  Solving for p, Initial residual = 6.0932851e-05, Final residual = 4.894798434e-06, No Iterations 4
time step continuity errors : sum local = 1.059481772e-05, global = 8.923942394e-08, cumulative = 0.0002927780606
BiCGStab:  Solving for C, Initial residual = 0.0007065095258, Final residual = 3.182496069e-08, No Iterations 1
C concentration =   Min(Yi) = 0  Max(Yi) = 0.009964820098
GAMG:  Solving for p, Initial residual = 6.026130223e-05, Final residual = 4.812318641e-06, No Iterations 4
time step continuity errors : sum local = 1.04089176e-05, global = 8.79109848e-08, cumulative = 0.0002928659716
BiCGStab:  Solving for C, Initial residual = 0.0007019808913, Final residual = 3.190754538e-08, No Iterations 1
C concentration =   Min(Yi) = 0  Max(Yi) = 0.009965242781
GAMG:  Solving for p, Initial residual = 5.959969779e-05, Final residual = 4.727279379e-06, No Iterations 4
time step continuity errors : sum local = 1.021784984e-05, global = 8.66542726e-08, cumulative = 0.0002929526259
BiCGStab:  Solving for C, Initial residual = 0.0006975807714, Final residual = 3.202771358e-08, No Iterations 1
C concentration =   Min(Yi) = 0  Max(Yi) = 0.009965653391
GAMG:  Solving for p, Initial residual = 5.894861617e-05, Final residual = 4.63960607e-06, No Iterations 4
time step continuity errors : sum local = 1.002145661e-05, global = 8.546971907e-08, cumulative = 0.0002930380956
BiCGStab:  Solving for C, Initial residual = 0.0006932045775, Final residual = 3.211575715e-08, No Iterations 1
C concentration =   Min(Yi) = 0  Max(Yi) = 0.009966052395
GAMG:  Solving for p, Initial residual = 5.830614971e-05, Final residual = 4.549494003e-06, No Iterations 4
time step continuity errors : sum local = 9.820163365e-06, global = 8.43499775e-08, cumulative = 0.0002931224456
BiCGStab:  Solving for C, Initial residual = 0.0006889152599, Final residual = 3.225038784e-08, No Iterations 1
C concentration =   Min(Yi) = 0  Max(Yi) = 0.00996644023
GAMG:  Solving for p, Initial residual = 5.76728933e-05, Final residual = 4.457121915e-06, No Iterations 4
time step continuity errors : sum local = 9.614357601e-06, global = 8.328990337e-08, cumulative = 0.0002932057355
BiCGStab:  Solving for C, Initial residual = 0.0006846727057, Final residual = 3.235024942e-08, No Iterations 1
C concentration =   Min(Yi) = 0  Max(Yi) = 0.009966817312
GAMG:  Solving for p, Initial residual = 5.704862762e-05, Final residual = 4.362792469e-06, No Iterations 4
time step continuity errors : sum local = 9.404693496e-06, global = 8.228236034e-08, cumulative = 0.0002932880178
BiCGStab:  Solving for C, Initial residual = 0.0006804633296, Final residual = 3.247283762e-08, No Iterations 1
C concentration =   Min(Yi) = 0  Max(Yi) = 0.009967350615
GAMG:  Solving for p, Initial residual = 5.643220545e-05, Final residual = 4.267001028e-06, No Iterations 4
time step continuity errors : sum local = 9.192238505e-06, global = 8.131831289e-08, cumulative = 0.0002933693362
BiCGStab:  Solving for C, Initial residual = 0.0006763353358, Final residual = 3.2575353e-08, No Iterations 1
C concentration =   Min(Yi) = 0  Max(Yi) = 0.009968005885
GAMG:  Solving for p, Initial residual = 5.582513992e-05, Final residual = 4.17030863e-06, No Iterations 4
time step continuity errors : sum local = 8.978197906e-06, global = 8.038893094e-08, cumulative = 0.0002934497251
BiCGStab:  Solving for C, Initial residual = 0.0006722229136, Final residual = 3.273783878e-08, No Iterations 1
C concentration =   Min(Yi) = 0  Max(Yi) = 0.009968640966
GAMG:  Solving for p, Initial residual = 5.522717258e-05, Final residual = 4.073640695e-06, No Iterations 4
time step continuity errors : sum local = 8.764558637e-06, global = 7.948215419e-08, cumulative = 0.0002935292072
BiCGStab:  Solving for C, Initial residual = 0.000668158041, Final residual = 3.293624878e-08, No Iterations 1
C concentration =   Min(Yi) = 0  Max(Yi) = 0.009969256566
GAMG:  Solving for p, Initial residual = 5.463663632e-05, Final residual = 3.97784082e-06, No Iterations 4
time step continuity errors : sum local = 8.553126474e-06, global = 7.858752257e-08, cumulative = 0.0002936077948
BiCGStab:  Solving for C, Initial residual = 0.0006641242212, Final residual = 3.309340141e-08, No Iterations 1
C concentration =   Min(Yi) = 0  Max(Yi) = 0.009969853362
GAMG:  Solving for p, Initial residual = 5.40559921e-05, Final residual = 3.883963288e-06, No Iterations 4
time step continuity errors : sum local = 8.346155497e-06, global = 7.769262931e-08, cumulative = 0.0002936854874
BiCGStab:  Solving for C, Initial residual = 0.0006601603005, Final residual = 3.328101877e-08, No Iterations 1
C concentration =   Min(Yi) = 0  Max(Yi) = 0.009970432008
GAMG:  Solving for p, Initial residual = 5.348458889e-05, Final residual = 3.792902461e-06, No Iterations 4
time step continuity errors : sum local = 8.145552606e-06, global = 7.678905768e-08, cumulative = 0.0002937622765
BiCGStab:  Solving for C, Initial residual = 0.0006562954508, Final residual = 3.346162651e-08, No Iterations 1
C concentration =   Min(Yi) = 0  Max(Yi) = 0.009970993129
GAMG:  Solving for p, Initial residual = 5.292195586e-05, Final residual = 3.705514631e-06, No Iterations 4
time step continuity errors : sum local = 7.953136093e-06, global = 7.586913029e-08, cumulative = 0.0002938381456
BiCGStab:  Solving for C, Initial residual = 0.0006524140394, Final residual = 3.363325498e-08, No Iterations 1
C concentration =   Min(Yi) = 0  Max(Yi) = 0.00997153733
GAMG:  Solving for p, Initial residual = 5.236790863e-05, Final residual = 3.622551193e-06, No Iterations 4
time step continuity errors : sum local = 7.770498126e-06, global = 7.492635022e-08, cumulative = 0.0002939130719
BiCGStab:  Solving for C, Initial residual = 0.0006486352031, Final residual = 3.383292888e-08, No Iterations 1
C concentration =   Min(Yi) = 0  Max(Yi) = 0.00997206519
GAMG:  Solving for p, Initial residual = 5.18236418e-05, Final residual = 3.565345698e-06, No Iterations 4
time step continuity errors : sum local = 7.64335142e-06, global = 7.267387002e-08, cumulative = 0.0002939857458
BiCGStab:  Solving for C, Initial residual = 0.0006448919032, Final residual = 3.403212593e-08, No Iterations 1
C concentration =   Min(Yi) = 0  Max(Yi) = 0.009972577265
GAMG:  Solving for p, Initial residual = 5.129228522e-05, Final residual = 3.490842615e-06, No Iterations 4
time step continuity errors : sum local = 7.479330415e-06, global = 7.166590187e-08, cumulative = 0.0002940574117
BiCGStab:  Solving for C, Initial residual = 0.0006411620838, Final residual = 3.422966439e-08, No Iterations 1
C concentration =   Min(Yi) = 0  Max(Yi) = 0.009973074093
GAMG:  Solving for p, Initial residual = 5.07682123e-05, Final residual = 3.421716601e-06, No Iterations 4
time step continuity errors : sum local = 7.327069257e-06, global = 7.063738857e-08, cumulative = 0.0002941280491
BiCGStab:  Solving for C, Initial residual = 0.000637484988, Final residual = 3.444493529e-08, No Iterations 1
C concentration =   Min(Yi) = 0  Max(Yi) = 0.009973556187
GAMG:  Solving for p, Initial residual = 5.025442016e-05, Final residual = 3.35769276e-06, No Iterations 4
time step continuity errors : sum local = 7.185955167e-06, global = 6.959408932e-08, cumulative = 0.0002941976432
BiCGStab:  Solving for C, Initial residual = 0.0006338541377, Final residual = 3.465978829e-08, No Iterations 1
C concentration =   Min(Yi) = 0  Max(Yi) = 0.009974024045
GAMG:  Solving for p, Initial residual = 4.974818677e-05, Final residual = 3.298598928e-06, No Iterations 4
time step continuity errors : sum local = 7.05559689e-06, global = 6.853970517e-08, cumulative = 0.0002942661829
BiCGStab:  Solving for C, Initial residual = 0.000630277068, Final residual = 3.49070995e-08, No Iterations 1
C concentration =   Min(Yi) = 0  Max(Yi) = 0.009974478143
GAMG:  Solving for p, Initial residual = 4.925033095e-05, Final residual = 3.244035906e-06, No Iterations 4
time step continuity errors : sum local = 6.935119347e-06, global = 6.748069953e-08, cumulative = 0.0002943336636
BiCGStab:  Solving for C, Initial residual = 0.0006267610613, Final residual = 3.510826892e-08, No Iterations 1
C concentration =   Min(Yi) = 0  Max(Yi) = 0.009974918942
GAMG:  Solving for p, Initial residual = 4.876106524e-05, Final residual = 3.193549034e-06, No Iterations 4
time step continuity errors : sum local = 6.823531423e-06, global = 6.642126446e-08, cumulative = 0.0002944000849
BiCGStab:  Solving for C, Initial residual = 0.0006232668124, Final residual = 3.477638518e-08, No Iterations 1
C concentration =   Min(Yi) = 0  Max(Yi) = 0.009975346886
GAMG:  Solving for p, Initial residual = 4.827959423e-05, Final residual = 3.147051215e-06, No Iterations 4
time step continuity errors : sum local = 6.720628857e-06, global = 6.536740757e-08, cumulative = 0.0002944654523
BiCGStab:  Solving for C, Initial residual = 0.0006198066104, Final residual = 3.573800523e-08, No Iterations 1
C concentration =   Min(Yi) = 0  Max(Yi) = 0.009975762397
GAMG:  Solving for p, Initial residual = 4.780665219e-05, Final residual = 3.103917586e-06, No Iterations 4
time step continuity errors : sum local = 6.625062466e-06, global = 6.432383611e-08, cumulative = 0.0002945297761
BiCGStab:  Solving for C, Initial residual = 0.0006163957057, Final residual = 3.64412403e-08, No Iterations 1
C concentration =   Min(Yi) = 0  Max(Yi) = 0.009976165888
GAMG:  Solving for p, Initial residual = 4.733971432e-05, Final residual = 3.063866294e-06, No Iterations 4
time step continuity errors : sum local = 6.536215996e-06, global = 6.330198508e-08, cumulative = 0.0002945930781
BiCGStab:  Solving for C, Initial residual = 0.0006130378445, Final residual = 3.696454533e-08, No Iterations 1
C concentration =   Min(Yi) = 0  Max(Yi) = 0.009976557755
GAMG:  Solving for p, Initial residual = 4.688191886e-05, Final residual = 3.02635533e-06, No Iterations 4
time step continuity errors : sum local = 6.452920829e-06, global = 6.230778552e-08, cumulative = 0.0002946553859
BiCGStab:  Solving for C, Initial residual = 0.0006096825976, Final residual = 3.736843322e-08, No Iterations 1
C concentration =   Min(Yi) = 0  Max(Yi) = 0.009976938379
GAMG:  Solving for p, Initial residual = 4.643067318e-05, Final residual = 2.991189854e-06, No Iterations 4
time step continuity errors : sum local = 6.374750881e-06, global = 6.134328064e-08, cumulative = 0.0002947167291
BiCGStab:  Solving for C, Initial residual = 0.0006063769638, Final residual = 3.762301409e-08, No Iterations 1
C concentration =   Min(Yi) = 0  Max(Yi) = 0.009977308132
GAMG:  Solving for p, Initial residual = 4.598696813e-05, Final residual = 2.957910262e-06, No Iterations 4
time step continuity errors : sum local = 6.300717161e-06, global = 6.041219235e-08, cumulative = 0.0002947771413
BiCGStab:  Solving for C, Initial residual = 0.0006030948381, Final residual = 3.791356119e-08, No Iterations 1
C concentration =   Min(Yi) = 0  Max(Yi) = 0.009977667369
GAMG:  Solving for p, Initial residual = 4.554952614e-05, Final residual = 2.926097799e-06, No Iterations 4
time step continuity errors : sum local = 6.229919761e-06, global = 5.951191806e-08, cumulative = 0.0002948366533
BiCGStab:  Solving for C, Initial residual = 0.000599850956, Final residual = 3.810949796e-08, No Iterations 1
C concentration =   Min(Yi) = 0  Max(Yi) = 0.009978016432
GAMG:  Solving for p, Initial residual = 4.511911848e-05, Final residual = 2.895376406e-06, No Iterations 4
time step continuity errors : sum local = 6.161551521e-06, global = 5.863999453e-08, cumulative = 0.0002948952933
BiCGStab:  Solving for C, Initial residual = 0.0005966527776, Final residual = 3.827726325e-08, No Iterations 1
C concentration =   Min(Yi) = 0  Max(Yi) = 0.009978355649
GAMG:  Solving for p, Initial residual = 4.46946499e-05, Final residual = 2.86542393e-06, No Iterations 4
time step continuity errors : sum local = 6.094921714e-06, global = 5.779561138e-08, cumulative = 0.0002949530889
BiCGStab:  Solving for C, Initial residual = 0.0005934677997, Final residual = 3.845982032e-08, No Iterations 1
C concentration =   Min(Yi) = 0  Max(Yi) = 0.009978685338
GAMG:  Solving for p, Initial residual = 4.427622311e-05, Final residual = 2.835962555e-06, No Iterations 4
time step continuity errors : sum local = 6.029435188e-06, global = 5.697231748e-08, cumulative = 0.0002950100612
BiCGStab:  Solving for C, Initial residual = 0.000590334234, Final residual = 3.880670201e-08, No Iterations 1
C concentration =   Min(Yi) = 0  Max(Yi) = 0.009979005804
GAMG:  Solving for p, Initial residual = 4.386298117e-05, Final residual = 2.806736873e-06, No Iterations 4
time step continuity errors : sum local = 5.964545802e-06, global = 5.617072534e-08, cumulative = 0.0002950662319
BiCGStab:  Solving for C, Initial residual = 0.0005872286577, Final residual = 3.895595167e-08, No Iterations 1
C concentration =   Min(Yi) = 0  Max(Yi) = 0.009979317343
GAMG:  Solving for p, Initial residual = 4.345586263e-05, Final residual = 2.777645442e-06, No Iterations 4
time step continuity errors : sum local = 5.90003531e-06, global = 5.538963093e-08, cumulative = 0.0002951216215
BiCGStab:  Solving for C, Initial residual = 0.0005841615245, Final residual = 3.915856994e-08, No Iterations 1
C concentration =   Min(Yi) = 0  Max(Yi) = 0.009979620238
GAMG:  Solving for p, Initial residual = 4.305440512e-05, Final residual = 2.748590008e-06, No Iterations 4
time step continuity errors : sum local = 5.835692772e-06, global = 5.462811105e-08, cumulative = 0.0002951762497
BiCGStab:  Solving for C, Initial residual = 0.0005811323156, Final residual = 3.940887266e-08, No Iterations 1
C concentration =   Min(Yi) = 0  Max(Yi) = 0.009979914765
GAMG:  Solving for p, Initial residual = 4.265761326e-05, Final residual = 2.719502437e-06, No Iterations 4
time step continuity errors : sum local = 5.771372371e-06, global = 5.388345698e-08, cumulative = 0.0002952301331
BiCGStab:  Solving for C, Initial residual = 0.0005781363224, Final residual = 3.970786272e-08, No Iterations 1
C concentration =   Min(Yi) = 0  Max(Yi) = 0.009980201189
GAMG:  Solving for p, Initial residual = 4.226610301e-05, Final residual = 2.690385475e-06, No Iterations 4
time step continuity errors : sum local = 5.707076826e-06, global = 5.315602536e-08, cumulative = 0.0002952832891
BiCGStab:  Solving for C, Initial residual = 0.0005751622583, Final residual = 3.998272135e-08, No Iterations 1
C concentration =   Min(Yi) = 0  Max(Yi) = 0.009980479813
GAMG:  Solving for p, Initial residual = 4.18790487e-05, Final residual = 2.661246525e-06, No Iterations 4
time step continuity errors : sum local = 5.642821285e-06, global = 5.244313583e-08, cumulative = 0.0002953357323
BiCGStab:  Solving for C, Initial residual = 0.0005722220725, Final residual = 3.891491306e-08, No Iterations 1
C concentration =   Min(Yi) = 0  Max(Yi) = 0.009980750916
GAMG:  Solving for p, Initial residual = 4.149819758e-05, Final residual = 2.63187661e-06, No Iterations 4
time step continuity errors : sum local = 5.57816058e-06, global = 5.174393126e-08, cumulative = 0.0002953874762
BiCGStab:  Solving for C, Initial residual = 0.0005693083419, Final residual = 3.896832168e-08, No Iterations 1
C concentration =   Min(Yi) = 0  Max(Yi) = 0.009981014732
GAMG:  Solving for p, Initial residual = 4.112205171e-05, Final residual = 2.602794596e-06, No Iterations 4
time step continuity errors : sum local = 5.514193334e-06, global = 5.106062355e-08, cumulative = 0.0002954385368
BiCGStab:  Solving for C, Initial residual = 0.0005664409876, Final residual = 3.91543299e-08, No Iterations 1
C concentration =   Min(Yi) = 0  Max(Yi) = 0.009981271471
GAMG:  Solving for p, Initial residual = 4.075021916e-05, Final residual = 2.573721692e-06, No Iterations 4
time step continuity errors : sum local = 5.450326849e-06, global = 5.039123004e-08, cumulative = 0.0002954889281
BiCGStab:  Solving for C, Initial residual = 0.00056359782, Final residual = 3.943773964e-08, No Iterations 1
C concentration =   Min(Yi) = 0  Max(Yi) = 0.009981521333
GAMG:  Solving for p, Initial residual = 4.038287631e-05, Final residual = 2.544833928e-06, No Iterations 4
time step continuity errors : sum local = 5.386932312e-06, global = 4.973067927e-08, cumulative = 0.0002955386587
BiCGStab:  Solving for C, Initial residual = 0.000560793141, Final residual = 3.976049618e-08, No Iterations 1
C concentration =   Min(Yi) = 0  Max(Yi) = 0.009981764513
GAMG:  Solving for p, Initial residual = 4.001962038e-05, Final residual = 2.510568066e-06, No Iterations 4
time step continuity errors : sum local = 5.312236041e-06, global = 4.906444739e-08, cumulative = 0.0002955877232
BiCGStab:  Solving for C, Initial residual = 0.0005580068543, Final residual = 4.007134115e-08, No Iterations 1
C concentration =   Min(Yi) = 0  Max(Yi) = 0.009982001202
GAMG:  Solving for p, Initial residual = 3.966042599e-05, Final residual = 2.482794576e-06, No Iterations 4
time step continuity errors : sum local = 5.251358954e-06, global = 4.841209206e-08, cumulative = 0.0002956361353
BiCGStab:  Solving for C, Initial residual = 0.0005552369584, Final residual = 4.036254989e-08, No Iterations 1
C concentration =   Min(Yi) = 0  Max(Yi) = 0.009982231588
GAMG:  Solving for p, Initial residual = 3.930686967e-05, Final residual = 2.455167798e-06, No Iterations 4
time step continuity errors : sum local = 5.19086465e-06, global = 4.777083868e-08, cumulative = 0.0002956839061
BiCGStab:  Solving for C, Initial residual = 0.000552510888, Final residual = 4.064852523e-08, No Iterations 1
C concentration =   Min(Yi) = 0  Max(Yi) = 0.009982455856
GAMG:  Solving for p, Initial residual = 3.895863507e-05, Final residual = 2.427738735e-06, No Iterations 4
time step continuity errors : sum local = 5.130859555e-06, global = 4.714200652e-08, cumulative = 0.0002957310481
BiCGStab:  Solving for C, Initial residual = 0.0005498020814, Final residual = 4.093774878e-08, No Iterations 1
C concentration =   Min(Yi) = 0  Max(Yi) = 0.009982674572
GAMG:  Solving for p, Initial residual = 3.861417782e-05, Final residual = 2.400616751e-06, No Iterations 4
time step continuity errors : sum local = 5.071573158e-06, global = 4.652385486e-08, cumulative = 0.000295777572
BiCGStab:  Solving for C, Initial residual = 0.0005471318913, Final residual = 4.122388089e-08, No Iterations 1
C concentration =   Min(Yi) = 0  Max(Yi) = 0.009982887761
GAMG:  Solving for p, Initial residual = 3.827429282e-05, Final residual = 2.374008189e-06, No Iterations 4
time step continuity errors : sum local = 5.013439447e-06, global = 4.591825235e-08, cumulative = 0.0002958234902
BiCGStab:  Solving for C, Initial residual = 0.0005444714442, Final residual = 4.147502887e-08, No Iterations 1
C concentration =   Min(Yi) = 0  Max(Yi) = 0.009983095415
GAMG:  Solving for p, Initial residual = 3.793880275e-05, Final residual = 2.347931421e-06, No Iterations 4
time step continuity errors : sum local = 4.956494899e-06, global = 4.532303056e-08, cumulative = 0.0002958688133
BiCGStab:  Solving for C, Initial residual = 0.0005418319765, Final residual = 4.170982776e-08, No Iterations 1
C concentration =   Min(Yi) = 0  Max(Yi) = 0.009983297615
GAMG:  Solving for p, Initial residual = 3.760909933e-05, Final residual = 2.322338259e-06, No Iterations 4
time step continuity errors : sum local = 4.900635457e-06, global = 4.4736859e-08, cumulative = 0.0002959135501
BiCGStab:  Solving for C, Initial residual = 0.0005392327744, Final residual = 4.19176392e-08, No Iterations 1
C concentration =   Min(Yi) = 0  Max(Yi) = 0.009983494482
GAMG:  Solving for p, Initial residual = 3.728171774e-05, Final residual = 3.72383254e-06, No Iterations 3
time step continuity errors : sum local = 7.855189543e-06, global = 5.6026747e-08, cumulative = 0.0002959695769
BiCGStab:  Solving for C, Initial residual = 0.0005366586508, Final residual = 4.209410404e-08, No Iterations 1
C concentration =   Min(Yi) = 0  Max(Yi) = 0.00998369591
GAMG:  Solving for p, Initial residual = 3.658055685e-05, Final residual = 2.701382642e-06, No Iterations 4
time step continuity errors : sum local = 5.696624411e-06, global = 3.693217565e-08, cumulative = 0.000296006509
BiCGStab:  Solving for C, Initial residual = 0.0005341021745, Final residual = 4.228793086e-08, No Iterations 1
C concentration =   Min(Yi) = 0  Max(Yi) = 0.009983901024
GAMG:  Solving for p, Initial residual = 3.633775759e-05, Final residual = 2.717760984e-06, No Iterations 4
time step continuity errors : sum local = 5.728820908e-06, global = 3.660446932e-08, cumulative = 0.0002960431135
BiCGStab:  Solving for C, Initial residual = 0.0005315859626, Final residual = 4.247516905e-08, No Iterations 1
C concentration =   Min(Yi) = 0  Max(Yi) = 0.009984100502
GAMG:  Solving for p, Initial residual = 3.613419067e-05, Final residual = 2.719119509e-06, No Iterations 4
time step continuity errors : sum local = 5.729461953e-06, global = 3.646181858e-08, cumulative = 0.0002960795753
BiCGStab:  Solving for C, Initial residual = 0.000529072953, Final residual = 4.367559161e-08, No Iterations 1
C concentration =   Min(Yi) = 0  Max(Yi) = 0.009984294596
GAMG:  Solving for p, Initial residual = 3.594638253e-05, Final residual = 2.596756446e-06, No Iterations 4
time step continuity errors : sum local = 5.469608836e-06, global = 3.605134242e-08, cumulative = 0.0002961156267
BiCGStab:  Solving for C, Initial residual = 0.0005265709485, Final residual = 4.354161425e-08, No Iterations 1
C concentration =   Min(Yi) = 0  Max(Yi) = 0.009984483532
GAMG:  Solving for p, Initial residual = 3.574055097e-05, Final residual = 2.498771967e-06, No Iterations 4
time step continuity errors : sum local = 5.26134017e-06, global = 3.733568649e-08, cumulative = 0.0002961529624
BiCGStab:  Solving for C, Initial residual = 0.0005241223857, Final residual = 4.345737303e-08, No Iterations 1
C concentration =   Min(Yi) = 0  Max(Yi) = 0.009984667505
GAMG:  Solving for p, Initial residual = 3.551385148e-05, Final residual = 2.561894256e-06, No Iterations 4
time step continuity errors : sum local = 5.392413651e-06, global = 3.929974448e-08, cumulative = 0.0002961922621
BiCGStab:  Solving for C, Initial residual = 0.0005216898814, Final residual = 4.34225799e-08, No Iterations 1
C concentration =   Min(Yi) = 0  Max(Yi) = 0.009984846698
GAMG:  Solving for p, Initial residual = 3.527389762e-05, Final residual = 2.423042932e-06, No Iterations 4
time step continuity errors : sum local = 5.098500889e-06, global = 3.971176394e-08, cumulative = 0.0002962319739
BiCGStab:  Solving for C, Initial residual = 0.0005193045384, Final residual = 4.342063521e-08, No Iterations 1
C concentration =   Min(Yi) = 0  Max(Yi) = 0.009985021275
GAMG:  Solving for p, Initial residual = 3.500736467e-05, Final residual = 2.300408413e-06, No Iterations 4
time step continuity errors : sum local = 4.838917414e-06, global = 3.995980453e-08, cumulative = 0.0002962719337
BiCGStab:  Solving for C, Initial residual = 0.0005169245054, Final residual = 4.345649149e-08, No Iterations 1
C concentration =   Min(Yi) = 0  Max(Yi) = 0.009985191391
GAMG:  Solving for p, Initial residual = 3.471598372e-05, Final residual = 2.205063348e-06, No Iterations 4
time step continuity errors : sum local = 4.636897203e-06, global = 3.997832134e-08, cumulative = 0.000296311912
BiCGStab:  Solving for C, Initial residual = 0.0005145680508, Final residual = 4.349339234e-08, No Iterations 1
C concentration =   Min(Yi) = 0  Max(Yi) = 0.009985357191
GAMG:  Solving for p, Initial residual = 3.440689035e-05, Final residual = 2.138003116e-06, No Iterations 4
time step continuity errors : sum local = 4.494466558e-06, global = 3.977510326e-08, cumulative = 0.0002963516871
BiCGStab:  Solving for C, Initial residual = 0.0005122397427, Final residual = 4.354369299e-08, No Iterations 1
C concentration =   Min(Yi) = 0  Max(Yi) = 0.009985518811
GAMG:  Solving for p, Initial residual = 3.40898717e-05, Final residual = 2.093838758e-06, No Iterations 4
time step continuity errors : sum local = 4.400238218e-06, global = 3.942456251e-08, cumulative = 0.0002963911117
[...]
BiCGStab:  Solving for C, Initial residual = 2.36725511e-05, Final residual = 1.487936664e-09, No Iterations 1
C concentration =   Min(Yi) = 9.204687226e-252  Max(Yi) = 0.009995273072
GAMG:  Solving for p, Initial residual = 3.563170136e-05, Final residual = 2.353870678e-06, No Iterations 4
time step continuity errors : sum local = 3.223947821e-06, global = 2.656167426e-08, cumulative = 0.0004680718565
BiCGStab:  Solving for C, Initial residual = 2.407996652e-05, Final residual = 1.510268482e-09, No Iterations 1
C concentration =   Min(Yi) = 1.081889686e-251  Max(Yi) = 0.009995307324
GAMG:  Solving for p, Initial residual = 3.533332634e-05, Final residual = 2.255053766e-06, No Iterations 4
time step continuity errors : sum local = 3.087608553e-06, global = 2.65798688e-08, cumulative = 0.0004680984363
BiCGStab:  Solving for C, Initial residual = 2.44836994e-05, Final residual = 1.532546226e-09, No Iterations 1
C concentration =   Min(Yi) = 1.271546272e-251  Max(Yi) = 0.009995341577
GAMG:  Solving for p, Initial residual = 3.501572571e-05, Final residual = 2.184760236e-06, No Iterations 4
time step continuity errors : sum local = 2.990400869e-06, global = 2.645081426e-08, cumulative = 0.0004681248872
BiCGStab:  Solving for C, Initial residual = 2.488380327e-05, Final residual = 1.554576203e-09, No Iterations 1
C concentration =   Min(Yi) = 1.494367762e-251  Max(Yi) = 0.00999537582
GAMG:  Solving for p, Initial residual = 3.469134517e-05, Final residual = 2.137600392e-06, No Iterations 4
time step continuity errors : sum local = 2.924907924e-06, global = 2.62282211e-08, cumulative = 0.0004681511154
BiCGStab:  Solving for C, Initial residual = 2.528043879e-05, Final residual = 1.576591192e-09, No Iterations 1
C concentration =   Min(Yi) = 1.756143089e-251  Max(Yi) = 0.009995410041
GAMG:  Solving for p, Initial residual = 3.436805817e-05, Final residual = 2.107082702e-06, No Iterations 4
time step continuity errors : sum local = 2.882218793e-06, global = 2.594283376e-08, cumulative = 0.0004681770582
BiCGStab:  Solving for C, Initial residual = 2.567355208e-05, Final residual = 1.597730856e-09, No Iterations 1
C concentration =   Min(Yi) = 2.063670721e-251  Max(Yi) = 0.009995444231
GAMG:  Solving for p, Initial residual = 3.405122279e-05, Final residual = 2.085559009e-06, No Iterations 4
time step continuity errors : sum local = 2.851854528e-06, global = 2.563539343e-08, cumulative = 0.0004682026936
BiCGStab:  Solving for C, Initial residual = 2.606316773e-05, Final residual = 1.618784757e-09, No Iterations 1
C concentration =   Min(Yi) = 2.424934306e-251  Max(Yi) = 0.009995478377
GAMG:  Solving for p, Initial residual = 3.374630807e-05, Final residual = 2.0481619e-06, No Iterations 4
time step continuity errors : sum local = 2.799812609e-06, global = 2.50832263e-08, cumulative = 0.0004682277768
BiCGStab:  Solving for C, Initial residual = 2.644902492e-05, Final residual = 1.640091172e-09, No Iterations 1
C concentration =   Min(Yi) = 2.849309276e-251  Max(Yi) = 0.00999551247
GAMG:  Solving for p, Initial residual = 3.344985624e-05, Final residual = 2.033463442e-06, No Iterations 4
time step continuity errors : sum local = 2.778823749e-06, global = 2.467736421e-08, cumulative = 0.0004682524542
BiCGStab:  Solving for C, Initial residual = 2.683129899e-05, Final residual = 1.661185119e-09, No Iterations 1
C concentration =   Min(Yi) = 3.347805404e-251  Max(Yi) = 0.009995546501
GAMG:  Solving for p, Initial residual = 3.31640081e-05, Final residual = 2.016779984e-06, No Iterations 4
time step continuity errors : sum local = 2.755143864e-06, global = 2.428217348e-08, cumulative = 0.0004682767364
BiCGStab:  Solving for C, Initial residual = 2.720950982e-05, Final residual = 1.682451758e-09, No Iterations 1
C concentration =   Min(Yi) = 3.933351368e-251  Max(Yi) = 0.009995580459
GAMG:  Solving for p, Initial residual = 3.288712175e-05, Final residual = 1.998583987e-06, No Iterations 4
time step continuity errors : sum local = 2.729423007e-06, global = 2.389358956e-08, cumulative = 0.00046830063
BiCGStab:  Solving for C, Initial residual = 2.758509195e-05, Final residual = 1.703498197e-09, No Iterations 1
C concentration =   Min(Yi) = 4.621128846e-251  Max(Yi) = 0.009995614336
GAMG:  Solving for p, Initial residual = 3.261754734e-05, Final residual = 1.979853633e-06, No Iterations 4
time step continuity errors : sum local = 2.702999756e-06, global = 2.350568762e-08, cumulative = 0.0004683241356
BiCGStab:  Solving for C, Initial residual = 2.795727551e-05, Final residual = 1.724348059e-09, No Iterations 1
C concentration =   Min(Yi) = 5.428965821e-251  Max(Yi) = 0.009995648124
GAMG:  Solving for p, Initial residual = 3.235291044e-05, Final residual = 1.961831098e-06, No Iterations 4
time step continuity errors : sum local = 2.677570435e-06, global = 2.311931944e-08, cumulative = 0.000468347255
BiCGStab:  Solving for C, Initial residual = 2.832560104e-05, Final residual = 1.745269713e-09, No Iterations 1
C concentration =   Min(Yi) = 6.377796431e-251  Max(Yi) = 0.009995681814
GAMG:  Solving for p, Initial residual = 3.209150971e-05, Final residual = 1.937566107e-06, No Iterations 4
time step continuity errors : sum local = 2.643650824e-06, global = 2.299239059e-08, cumulative = 0.0004683702474
BiCGStab:  Solving for C, Initial residual = 2.869037718e-05, Final residual = 1.766343333e-09, No Iterations 1
C concentration =   Min(Yi) = 7.49220232e-251  Max(Yi) = 0.009995715397

STEADYSTATE: not converged within 100 iterations
ExecutionTime = 239.86 s  ClockTime = 240 s

Courant Number mean: 1.187059496 max: 32.89287464 velocity magnitude: 0.000232875344
Mesh Courant Number mean: 2.639956489e-06 max: 0.004997251886
deltaT = 4.684174874
Time = 1089.050964

DICPCG:  Solving for cellMotionUx, Initial residual = 0.0001556425646, Final residual = 4.897898695e-07, No Iterations 4
DICPCG:  Solving for cellMotionUy, Initial residual = 6.137661659e-05, Final residual = 9.599004624e-07, No Iterations 2

STEADYSTATE: convergence criteria
    field p	 tolerance 1e-06
    field U	 tolerance 1e-06
    field C	 tolerance 1e-06

GAMG:  Solving for p, Initial residual = 9.460863788e-05, Final residual = 5.66621818e-06, No Iterations 4
time step continuity errors : sum local = 8.226592479e-06, global = 1.13885895e-07, cumulative = 0.0004684841332
BiCGStab:  Solving for C, Initial residual = 4.899388624e-05, Final residual = 5.110342382e-09, No Iterations 1
C concentration =   Min(Yi) = 8.798582099e-251  Max(Yi) = 0.009995562898
GAMG:  Solving for p, Initial residual = 9.129582552e-05, Final residual = 6.023901567e-06, No Iterations 4
time step continuity errors : sum local = 8.736068566e-06, global = 1.096790952e-07, cumulative = 0.0004685938123
BiCGStab:  Solving for C, Initial residual = 4.613243438e-05, Final residual = 4.230748363e-09, No Iterations 1
C concentration =   Min(Yi) = 1.033346641e-250  Max(Yi) = 0.009995426801
GAMG:  Solving for p, Initial residual = 8.893990795e-05, Final residual = 5.795806969e-06, No Iterations 4
time step continuity errors : sum local = 8.39552475e-06, global = 1.120766115e-07, cumulative = 0.000468705889
BiCGStab:  Solving for C, Initial residual = 4.392540156e-05, Final residual = 3.62809409e-09, No Iterations 1
C concentration =   Min(Yi) = 1.213660563e-250  Max(Yi) = 0.009995304122
GAMG:  Solving for p, Initial residual = 8.711545772e-05, Final residual = 8.086533707e-06, No Iterations 4
time step continuity errors : sum local = 1.170031746e-05, global = 1.059645731e-07, cumulative = 0.0004688118535
BiCGStab:  Solving for C, Initial residual = 4.202532039e-05, Final residual = 3.205213778e-09, No Iterations 1
C concentration =   Min(Yi) = 1.425466742e-250  Max(Yi) = 0.009995192606
GAMG:  Solving for p, Initial residual = 8.593328863e-05, Final residual = 7.710948567e-06, No Iterations 4
time step continuity errors : sum local = 1.114401769e-05, global = 1.004496537e-07, cumulative = 0.0004689123032
BiCGStab:  Solving for C, Initial residual = 4.03016415e-05, Final residual = 2.899579387e-09, No Iterations 1
C concentration =   Min(Yi) = 1.674244456e-250  Max(Yi) = 0.009995090536
GAMG:  Solving for p, Initial residual = 8.489441044e-05, Final residual = 7.428872467e-06, No Iterations 4
time step continuity errors : sum local = 1.072392371e-05, global = 9.873980909e-08, cumulative = 0.000469011043
BiCGStab:  Solving for C, Initial residual = 3.869565421e-05, Final residual = 2.672223882e-09, No Iterations 1
C concentration =   Min(Yi) = 1.966428036e-250  Max(Yi) = 0.009994996588
GAMG:  Solving for p, Initial residual = 8.38784529e-05, Final residual = 7.261512898e-06, No Iterations 4
time step continuity errors : sum local = 1.047047848e-05, global = 9.883187941e-08, cumulative = 0.0004691098749
BiCGStab:  Solving for C, Initial residual = 3.717789089e-05, Final residual = 2.491589864e-09, No Iterations 1
C concentration =   Min(Yi) = 2.309572947e-250  Max(Yi) = 0.009994909732
GAMG:  Solving for p, Initial residual = 8.284214891e-05, Final residual = 7.091255647e-06, No Iterations 4
time step continuity errors : sum local = 1.021378258e-05, global = 9.838500122e-08, cumulative = 0.0004692082599
BiCGStab:  Solving for C, Initial residual = 3.573402951e-05, Final residual = 2.347982977e-09, No Iterations 1
C concentration =   Min(Yi) = 2.712551152e-250  Max(Yi) = 0.009994829158
GAMG:  Solving for p, Initial residual = 8.17732296e-05, Final residual = 5.383936301e-06, No Iterations 4
time step continuity errors : sum local = 7.746412916e-06, global = 9.952046952e-08, cumulative = 0.0004693077803
BiCGStab:  Solving for C, Initial residual = 3.435051464e-05, Final residual = 2.227437392e-09, No Iterations 1
C concentration =   Min(Yi) = 3.185779316e-250  Max(Yi) = 0.009994754221
GAMG:  Solving for p, Initial residual = 8.042643897e-05, Final residual = 6.465498798e-06, No Iterations 4
time step continuity errors : sum local = 9.292970586e-06, global = 9.64475603e-08, cumulative = 0.0004694042279
BiCGStab:  Solving for C, Initial residual = 3.301697702e-05, Final residual = 2.121148304e-09, No Iterations 1
C concentration =   Min(Yi) = 3.741486976e-250  Max(Yi) = 0.009994684406
GAMG:  Solving for p, Initial residual = 7.933769133e-05, Final residual = 6.721291446e-06, No Iterations 4
time step continuity errors : sum local = 9.650718335e-06, global = 9.233012189e-08, cumulative = 0.000469496558
BiCGStab:  Solving for C, Initial residual = 3.17298434e-05, Final residual = 2.026641478e-09, No Iterations 1
C concentration =   Min(Yi) = 4.394031881e-250  Max(Yi) = 0.009994619291
GAMG:  Solving for p, Initial residual = 7.830153994e-05, Final residual = 6.602600167e-06, No Iterations 4
time step continuity errors : sum local = 9.470601316e-06, global = 8.952666598e-08, cumulative = 0.0004695860847
BiCGStab:  Solving for C, Initial residual = 3.048506832e-05, Final residual = 1.94402328e-09, No Iterations 1
C concentration =   Min(Yi) = 5.160269326e-250  Max(Yi) = 0.009994558529
GAMG:  Solving for p, Initial residual = 7.726506775e-05, Final residual = 6.48394951e-06, No Iterations 4
time step continuity errors : sum local = 9.291048561e-06, global = 8.66727705e-08, cumulative = 0.0004696727575
BiCGStab:  Solving for C, Initial residual = 2.927881921e-05, Final residual = 1.869981349e-09, No Iterations 1
C concentration =   Min(Yi) = 6.059985286e-250  Max(Yi) = 0.009994501829
GAMG:  Solving for p, Initial residual = 7.624009629e-05, Final residual = 6.346937509e-06, No Iterations 4
time step continuity errors : sum local = 9.085716425e-06, global = 8.527667763e-08, cumulative = 0.0004697580341
BiCGStab:  Solving for C, Initial residual = 2.810624334e-05, Final residual = 1.801109568e-09, No Iterations 1
C concentration =   Min(Yi) = 7.116404934e-250  Max(Yi) = 0.009994455167
GAMG:  Solving for p, Initial residual = 7.522952183e-05, Final residual = 6.322506781e-06, No Iterations 4
time step continuity errors : sum local = 9.041971157e-06, global = 8.29761945e-08, cumulative = 0.0004698410103
BiCGStab:  Solving for C, Initial residual = 2.696374474e-05, Final residual = 1.735524992e-09, No Iterations 1
C concentration =   Min(Yi) = 8.356789325e-250  Max(Yi) = 0.009994426851
GAMG:  Solving for p, Initial residual = 7.426122856e-05, Final residual = 6.237167804e-06, No Iterations 4
time step continuity errors : sum local = 8.911434365e-06, global = 8.077323536e-08, cumulative = 0.0004699217836
BiCGStab:  Solving for C, Initial residual = 2.58518395e-05, Final residual = 1.674070731e-09, No Iterations 1
C concentration =   Min(Yi) = 9.813134465e-250  Max(Yi) = 0.009994400631
GAMG:  Solving for p, Initial residual = 7.332711468e-05, Final residual = 6.15622193e-06, No Iterations 4
time step continuity errors : sum local = 8.787577034e-06, global = 7.870861542e-08, cumulative = 0.0004700004922
BiCGStab:  Solving for C, Initial residual = 2.477294458e-05, Final residual = 1.616364448e-09, No Iterations 1
C concentration =   Min(Yi) = 1.152299131e-249  Max(Yi) = 0.009994376363
GAMG:  Solving for p, Initial residual = 7.242919989e-05, Final residual = 6.078372009e-06, No Iterations 4
time step continuity errors : sum local = 8.668520262e-06, global = 7.675391705e-08, cumulative = 0.0004700772461
BiCGStab:  Solving for C, Initial residual = 2.372440515e-05, Final residual = 1.560168497e-09, No Iterations 1
C concentration =   Min(Yi) = 1.353042855e-249  Max(Yi) = 0.009994353926
GAMG:  Solving for p, Initial residual = 7.156648278e-05, Final residual = 6.002654197e-06, No Iterations 4
time step continuity errors : sum local = 8.55286286e-06, global = 7.488828589e-08, cumulative = 0.0004701521344
BiCGStab:  Solving for C, Initial residual = 2.270409195e-05, Final residual = 1.504924987e-09, No Iterations 1
C concentration =   Min(Yi) = 1.588716386e-249  Max(Yi) = 0.009994333214
GAMG:  Solving for p, Initial residual = 7.07271831e-05, Final residual = 5.927920941e-06, No Iterations 4
time step continuity errors : sum local = 8.438946498e-06, global = 7.310277888e-08, cumulative = 0.0004702252372
BiCGStab:  Solving for C, Initial residual = 2.171292975e-05, Final residual = 1.450611574e-09, No Iterations 1
C concentration =   Min(Yi) = 1.865388134e-249  Max(Yi) = 0.009994314131
GAMG:  Solving for p, Initial residual = 6.990815414e-05, Final residual = 5.853161416e-06, No Iterations 4
time step continuity errors : sum local = 8.325316631e-06, global = 7.139745139e-08, cumulative = 0.0004702966346
BiCGStab:  Solving for C, Initial residual = 2.075089671e-05, Final residual = 1.396194376e-09, No Iterations 1
C concentration =   Min(Yi) = 2.190178514e-249  Max(Yi) = 0.009994296594
GAMG:  Solving for p, Initial residual = 6.910277488e-05, Final residual = 5.777618515e-06, No Iterations 4
time step continuity errors : sum local = 8.210882798e-06, global = 6.977767671e-08, cumulative = 0.0004703664123
BiCGStab:  Solving for C, Initial residual = 1.981686922e-05, Final residual = 1.342781854e-09, No Iterations 1
C concentration =   Min(Yi) = 2.571441551e-249  Max(Yi) = 0.00999428053
GAMG:  Solving for p, Initial residual = 6.830820617e-05, Final residual = 5.700775108e-06, No Iterations 4
time step continuity errors : sum local = 8.094902204e-06, global = 6.824978041e-08, cumulative = 0.0004704346621
BiCGStab:  Solving for C, Initial residual = 1.890929726e-05, Final residual = 1.289947802e-09, No Iterations 1
C concentration =   Min(Yi) = 3.018978034e-249  Max(Yi) = 0.009994265871
GAMG:  Solving for p, Initial residual = 6.752379497e-05, Final residual = 5.622557615e-06, No Iterations 4
time step continuity errors : sum local = 7.977264868e-06, global = 6.681907514e-08, cumulative = 0.0004705014811
BiCGStab:  Solving for C, Initial residual = 1.802730063e-05, Final residual = 1.238371132e-09, No Iterations 1
C concentration =   Min(Yi) = 3.544284961e-249  Max(Yi) = 0.009994252557
GAMG:  Solving for p, Initial residual = 6.674945864e-05, Final residual = 5.542935034e-06, No Iterations 4
time step continuity errors : sum local = 7.857923651e-06, global = 6.548962103e-08, cumulative = 0.0004705669708
BiCGStab:  Solving for C, Initial residual = 1.716796137e-05, Final residual = 1.187874517e-09, No Iterations 1
C concentration =   Min(Yi) = 4.160848036e-249  Max(Yi) = 0.009994240535
GAMG:  Solving for p, Initial residual = 6.598578173e-05, Final residual = 5.4618009e-06, No Iterations 4
time step continuity errors : sum local = 7.736725032e-06, global = 6.425937106e-08, cumulative = 0.0004706312301
BiCGStab:  Solving for C, Initial residual = 1.633102977e-05, Final residual = 1.137878847e-09, No Iterations 1
C concentration =   Min(Yi) = 4.88448443e-249  Max(Yi) = 0.009994229753
GAMG:  Solving for p, Initial residual = 6.523228057e-05, Final residual = 5.379102825e-06, No Iterations 4
time step continuity errors : sum local = 7.613593228e-06, global = 6.312370261e-08, cumulative = 0.0004706943538
BiCGStab:  Solving for C, Initial residual = 1.551709399e-05, Final residual = 1.088674856e-09, No Iterations 1
C concentration =   Min(Yi) = 5.733744283e-249  Max(Yi) = 0.009994220167
GAMG:  Solving for p, Initial residual = 6.449054974e-05, Final residual = 5.294653109e-06, No Iterations 4
time step continuity errors : sum local = 7.488261635e-06, global = 6.207604099e-08, cumulative = 0.0004707564299
BiCGStab:  Solving for C, Initial residual = 1.472829844e-05, Final residual = 1.040605093e-09, No Iterations 1
C concentration =   Min(Yi) = 6.73038085e-249  Max(Yi) = 0.009994211734
GAMG:  Solving for p, Initial residual = 6.376005217e-05, Final residual = 5.20851092e-06, No Iterations 4
time step continuity errors : sum local = 7.360813382e-06, global = 6.110920656e-08, cumulative = 0.0004708175391
BiCGStab:  Solving for C, Initial residual = 1.396289525e-05, Final residual = 9.936034069e-10, No Iterations 1
C concentration =   Min(Yi) = 7.899901264e-249  Max(Yi) = 0.009994204415
GAMG:  Solving for p, Initial residual = 6.304141012e-05, Final residual = 5.120281543e-06, No Iterations 4
time step continuity errors : sum local = 7.230690709e-06, global = 6.021564059e-08, cumulative = 0.0004708777547
BiCGStab:  Solving for C, Initial residual = 1.322064453e-05, Final residual = 9.472420996e-10, No Iterations 1
C concentration =   Min(Yi) = 9.272211535e-249  Max(Yi) = 0.009994198174
GAMG:  Solving for p, Initial residual = 6.233328436e-05, Final residual = 5.029963541e-06, No Iterations 4
time step continuity errors : sum local = 7.097891544e-06, global = 5.938515622e-08, cumulative = 0.0004709371399
BiCGStab:  Solving for C, Initial residual = 1.249919359e-05, Final residual = 9.020119504e-10, No Iterations 1
C concentration =   Min(Yi) = 1.088237188e-248  Max(Yi) = 0.009994192977
GAMG:  Solving for p, Initial residual = 6.163701123e-05, Final residual = 4.937243826e-06, No Iterations 4
time step continuity errors : sum local = 6.961974558e-06, global = 5.861099039e-08, cumulative = 0.0004709957509
BiCGStab:  Solving for C, Initial residual = 1.180327177e-05, Final residual = 8.585215842e-10, No Iterations 1
C concentration =   Min(Yi) = 1.277148086e-248  Max(Yi) = 0.009994188793
GAMG:  Solving for p, Initial residual = 6.095085816e-05, Final residual = 4.842146496e-06, No Iterations 4
time step continuity errors : sum local = 6.822975257e-06, global = 5.788598284e-08, cumulative = 0.0004710536369
BiCGStab:  Solving for C, Initial residual = 1.113369943e-05, Final residual = 8.16156188e-10, No Iterations 1
C concentration =   Min(Yi) = 1.498771177e-248  Max(Yi) = 0.009994185581
GAMG:  Solving for p, Initial residual = 6.027381178e-05, Final residual = 4.744715977e-06, No Iterations 4
time step continuity errors : sum local = 6.680957297e-06, global = 5.720241865e-08, cumulative = 0.0004711108393
BiCGStab:  Solving for C, Initial residual = 1.048563858e-05, Final residual = 7.756032236e-10, No Iterations 1
C concentration =   Min(Yi) = 1.758752447e-248  Max(Yi) = 0.009994183317
