/*---------------------------------------------------------------------------*\
| =========                 |                                                 |
| \\      /  F ield         | foam-extend: Open Source CFD                    |
|  \\    /   O peration     | Version:     4.0                                |
|   \\  /    A nd           | Web:         http://www.foam-extend.org         |
|    \\/     M anipulation  | For copyright notice see file Copyright         |
\*---------------------------------------------------------------------------*/
Build    : 4.0-268bb07d15d8
Exec     : reactiveTransportALEFoam -parallel
Date     : Aug 24 2022
Time     : 21:32:59
Host     : EGIS-Linux-02
PID      : 1522078
CtrlDict : "/home/jm44/works/testcase/micromodel/system/controlDict"
Case     : /home/jm44/works/testcase/micromodel
nProcs   : 24
Slaves : 
23
(
EGIS-Linux-02.1522079
EGIS-Linux-02.1522080
EGIS-Linux-02.1522081
EGIS-Linux-02.1522082
EGIS-Linux-02.1522083
EGIS-Linux-02.1522084
EGIS-Linux-02.1522085
EGIS-Linux-02.1522086
EGIS-Linux-02.1522087
EGIS-Linux-02.1522088
EGIS-Linux-02.1522089
EGIS-Linux-02.1522090
EGIS-Linux-02.1522091
EGIS-Linux-02.1522094
EGIS-Linux-02.1522097
EGIS-Linux-02.1522098
EGIS-Linux-02.1522099
EGIS-Linux-02.1522102
EGIS-Linux-02.1522103
EGIS-Linux-02.1522104
EGIS-Linux-02.1522106
EGIS-Linux-02.1522107
EGIS-Linux-02.1522108
)

Pstream initialized with:
    nProcsSimpleSum   : 0
    commsType         : blocking
SigFpe   : Enabling floating point exception trapping (FOAM_SIGFPE).

// * * * * * * * * * * * * * * * * * * * * * * * * * * * * * * * * * * * * * //
Create time

Create dynamic mesh for time = 14280.39883

Selecting dynamicFvMesh dynamicMotionSolverFvMesh
Selecting motion solver: velocityLaplacian
--> FOAM Warning : 
    From function dlLibraryTable::open(const dictionary& dict, const word& libsEntry, const TablePtr tablePtr)
    in file /usr/local/foam/foam-extend-4.0/src/foam/lnInclude/dlLibraryTableTemplates.C at line 67
    library "libfvMotionSolver.so" did not introduce any new entries

Selecting motion diffusion: quadratic
Selecting motion diffusion: inverseDistance

SIMPLE: convergence criteria
    field p	 tolerance 1e-05
    field U	 tolerance 1e-05

Reading field p

Reading field U

Reading transportProperties

Reading/calculating face flux field phi

Create species mixture

Read species diffusion coefficients

Selecting incompressible transport model Newtonian
Selecting RAS turbulence model laminar
Mesh Courant Number mean: 0 max: 0

Starting time loop

Courant Number mean: 1.272014542 max: 36.35644226 velocity magnitude: 0.0002328027783
Mesh Courant Number mean: 0 max: 0
deltaT = 5.99880024
Time = 14286.39763

DICPCG:  Solving for cellMotionUx, Initial residual = 0.00313182039, Final residual = 9.12990695e-07, No Iterations 20
DICPCG:  Solving for cellMotionUy, Initial residual = 0.01240430117, Final residual = 8.542555786e-07, No Iterations 20

STEADYSTATE: convergence criteria
    field p	 tolerance 1e-06
    field U	 tolerance 1e-06
    field C	 tolerance 1e-06

GAMG:  Solving for p, Initial residual = 0.0001644751703, Final residual = 6.148917406e-06, No Iterations 2
time step continuity errors : sum local = 1.038305652e-05, global = 5.243952396e-09, cumulative = 5.243952396e-09
BiCGStab:  Solving for C, Initial residual = 1.385477965e-06, Final residual = 2.224414951e-09, No Iterations 1
C concentration =   Min(Yi) = 2.375145687e-36  Max(Yi) = 0.009999893216
GAMG:  Solving for p, Initial residual = 6.600443773e-05, Final residual = 4.00195538e-06, No Iterations 2
time step continuity errors : sum local = 6.756993921e-06, global = -5.634886344e-09, cumulative = -3.909339472e-10
BiCGStab:  Solving for C, Initial residual = 1.203544442e-06, Final residual = 2.968203871e-09, No Iterations 1
C concentration =   Min(Yi) = 2.375091349e-36  Max(Yi) = 0.009999893229
GAMG:  Solving for p, Initial residual = 5.029533637e-05, Final residual = 3.61913176e-06, No Iterations 3
time step continuity errors : sum local = 6.112274424e-06, global = -9.019691592e-09, cumulative = -9.41062554e-09
BiCGStab:  Solving for C, Initial residual = 1.128699475e-06, Final residual = 1.855076076e-09, No Iterations 1
C concentration =   Min(Yi) = 2.375036992e-36  Max(Yi) = 0.009999893243
GAMG:  Solving for p, Initial residual = 4.287323638e-05, Final residual = 3.651742123e-06, No Iterations 3
time step continuity errors : sum local = 6.170511855e-06, global = -1.200367005e-08, cumulative = -2.141429559e-08
BiCGStab:  Solving for C, Initial residual = 1.087409634e-06, Final residual = 9.634979146e-10, No Iterations 1
C concentration =   Min(Yi) = 2.37498261e-36  Max(Yi) = 0.009999893256
GAMG:  Solving for p, Initial residual = 3.6266107e-05, Final residual = 3.203260531e-06, No Iterations 3
time step continuity errors : sum local = 5.415486409e-06, global = -1.310312532e-08, cumulative = -3.451742091e-08
BiCGStab:  Solving for C, Initial residual = 1.0617173e-06, Final residual = 4.889688023e-10, No Iterations 1
C concentration =   Min(Yi) = 2.374928217e-36  Max(Yi) = 0.009999893269
GAMG:  Solving for p, Initial residual = 2.903608404e-05, Final residual = 2.59410015e-06, No Iterations 3
time step continuity errors : sum local = 4.38751698e-06, global = -1.279381831e-08, cumulative = -4.731123923e-08
BiCGStab:  Solving for C, Initial residual = 1.045435237e-06, Final residual = 2.889364778e-10, No Iterations 1
C concentration =   Min(Yi) = 2.374873824e-36  Max(Yi) = 0.009999893283
GAMG:  Solving for p, Initial residual = 2.263873296e-05, Final residual = 1.983574354e-06, No Iterations 2
time step continuity errors : sum local = 3.35593657e-06, global = -1.482450907e-08, cumulative = -6.21357483e-08
BiCGStab:  Solving for C, Initial residual = 1.034339036e-06, Final residual = 2.021968372e-10, No Iterations 1
C concentration =   Min(Yi) = 2.374819435e-36  Max(Yi) = 0.009999893296
GAMG:  Solving for p, Initial residual = 1.877738595e-05, Final residual = 1.579059475e-06, No Iterations 2
time step continuity errors : sum local = 2.671789138e-06, global = -1.534795914e-08, cumulative = -7.748370745e-08
BiCGStab:  Solving for C, Initial residual = 1.026725798e-06, Final residual = 1.458644404e-10, No Iterations 1
C concentration =   Min(Yi) = 2.37476505e-36  Max(Yi) = 0.00999989331
GAMG:  Solving for p, Initial residual = 1.774216644e-05, Final residual = 1.384493173e-06, No Iterations 3
time step continuity errors : sum local = 2.342536105e-06, global = -1.472786902e-08, cumulative = -9.221157647e-08
BiCGStab:  Solving for C, Initial residual = 1.019858716e-06, Final residual = 9.677173395e-11, No Iterations 1
C concentration =   Min(Yi) = 2.374710669e-36  Max(Yi) = 0.009999893323
GAMG:  Solving for p, Initial residual = 1.736394102e-05, Final residual = 1.456459052e-06, No Iterations 3
time step continuity errors : sum local = 2.464081884e-06, global = -1.186750779e-08, cumulative = -1.040790843e-07
BiCGStab:  Solving for C, Initial residual = 1.014945196e-06, Final residual = 6.316999988e-11, No Iterations 1
C concentration =   Min(Yi) = 2.374656294e-36  Max(Yi) = 0.009999893336
GAMG:  Solving for p, Initial residual = 1.744593411e-05, Final residual = 1.633741412e-06, No Iterations 3
time step continuity errors : sum local = 2.763602847e-06, global = -8.252783241e-09, cumulative = -1.123318675e-07
BiCGStab:  Solving for C, Initial residual = 1.010921597e-06, Final residual = 5.279476722e-11, No Iterations 1
C concentration =   Min(Yi) = 2.374601926e-36  Max(Yi) = 0.009999893349
GAMG:  Solving for p, Initial residual = 1.764724007e-05, Final residual = 1.70686129e-06, No Iterations 3
time step continuity errors : sum local = 2.886752372e-06, global = -6.086524021e-09, cumulative = -1.184183915e-07
BiCGStab:  Solving for C, Initial residual = 1.007501451e-06, Final residual = 5.098572466e-11, No Iterations 1
C concentration =   Min(Yi) = 2.374547569e-36  Max(Yi) = 0.009999893362
GAMG:  Solving for p, Initial residual = 1.746988884e-05, Final residual = 1.72701549e-06, No Iterations 3
time step continuity errors : sum local = 2.920199727e-06, global = -3.912518405e-09, cumulative = -1.223309099e-07
BiCGStab:  Solving for C, Initial residual = 1.004632609e-06, Final residual = 5.072788785e-11, No Iterations 1
C concentration =   Min(Yi) = 2.374493225e-36  Max(Yi) = 0.009999893376
GAMG:  Solving for p, Initial residual = 1.673076697e-05, Final residual = 8.67205217e-07, No Iterations 4
time step continuity errors : sum local = 1.466018604e-06, global = -1.636329183e-10, cumulative = -1.224945428e-07
BiCGStab:  Solving for C, Initial residual = 1.001594387e-06, Final residual = 5.014428863e-11, No Iterations 1
C concentration =   Min(Yi) = 2.374438898e-36  Max(Yi) = 0.009999893389
GAMG:  Solving for p, Initial residual = 1.531495986e-05, Final residual = 8.387850665e-07, No Iterations 4
time step continuity errors : sum local = 1.417636423e-06, global = 1.439920555e-09, cumulative = -1.210546223e-07
BiCGStab:  Solving for C, Initial residual = 9.990288258e-07, Final residual = 9.990288258e-07, No Iterations 0
C concentration =   Min(Yi) = 2.374438898e-36  Max(Yi) = 0.009999893389
GAMG:  Solving for p, Initial residual = 1.36353274e-05, Final residual = 8.111235452e-07, No Iterations 4
time step continuity errors : sum local = 1.370580317e-06, global = 2.770724941e-09, cumulative = -1.182838973e-07
BiCGStab:  Solving for C, Initial residual = 1.000210714e-06, Final residual = 4.958204453e-11, No Iterations 1
C concentration =   Min(Yi) = 2.374384588e-36  Max(Yi) = 0.009999893402
GAMG:  Solving for p, Initial residual = 1.180887636e-05, Final residual = 7.743132081e-07, No Iterations 4
time step continuity errors : sum local = 1.308118295e-06, global = 3.767449362e-09, cumulative = -1.14516448e-07
BiCGStab:  Solving for C, Initial residual = 9.977386532e-07, Final residual = 9.977386532e-07, No Iterations 0
C concentration =   Min(Yi) = 2.374384588e-36  Max(Yi) = 0.009999893402
GAMG:  Solving for p, Initial residual = 9.94993976e-06, Final residual = 6.815718679e-07, No Iterations 4
time step continuity errors : sum local = 1.151240794e-06, global = 4.424366716e-09, cumulative = -1.100920813e-07
BiCGStab:  Solving for C, Initial residual = 9.989507654e-07, Final residual = 9.989507654e-07, No Iterations 0
C concentration =   Min(Yi) = 2.374384588e-36  Max(Yi) = 0.009999893402
GAMG:  Solving for p, Initial residual = 8.175381328e-06, Final residual = 8.699339234e-07, No Iterations 2
time step continuity errors : sum local = 1.469189608e-06, global = 8.190463702e-09, cumulative = -1.019016176e-07
BiCGStab:  Solving for C, Initial residual = 1.000214298e-06, Final residual = 4.930973923e-11, No Iterations 1
C concentration =   Min(Yi) = 2.374330296e-36  Max(Yi) = 0.009999893416
GAMG:  Solving for p, Initial residual = 6.553065423e-06, Final residual = 8.665878958e-07, No Iterations 2
time step continuity errors : sum local = 1.463447148e-06, global = 9.459508521e-09, cumulative = -9.244210904e-08
BiCGStab:  Solving for C, Initial residual = 9.97582389e-07, Final residual = 9.97582389e-07, No Iterations 0
C concentration =   Min(Yi) = 2.374330296e-36  Max(Yi) = 0.009999893416
GAMG:  Solving for p, Initial residual = 5.277152544e-06, Final residual = 8.082066921e-07, No Iterations 3
time step continuity errors : sum local = 1.364780923e-06, global = 9.060643696e-09, cumulative = -8.338146535e-08
BiCGStab:  Solving for C, Initial residual = 9.990092586e-07, Final residual = 9.990092586e-07, No Iterations 0
C concentration =   Min(Yi) = 2.374330296e-36  Max(Yi) = 0.009999893416
GAMG:  Solving for p, Initial residual = 4.249804276e-06, Final residual = 9.210298875e-07, No Iterations 1
time step continuity errors : sum local = 1.555208598e-06, global = 1.363876062e-08, cumulative = -6.974270473e-08
BiCGStab:  Solving for C, Initial residual = 9.997204637e-07, Final residual = 9.997204637e-07, No Iterations 0
C concentration =   Min(Yi) = 2.374330296e-36  Max(Yi) = 0.009999893416
GAMG:  Solving for p, Initial residual = 3.487440282e-06, Final residual = 9.430436501e-07, No Iterations 1
time step continuity errors : sum local = 1.592364026e-06, global = 1.52533364e-08, cumulative = -5.448936833e-08
BiCGStab:  Solving for C, Initial residual = 1.000664717e-06, Final residual = 4.874611396e-11, No Iterations 1
C concentration =   Min(Yi) = 2.374276023e-36  Max(Yi) = 0.00999989343
GAMG:  Solving for p, Initial residual = 2.977099814e-06, Final residual = 8.48465775e-07, No Iterations 2
time step continuity errors : sum local = 1.432652842e-06, global = 1.421022717e-08, cumulative = -4.027914116e-08
BiCGStab:  Solving for C, Initial residual = 9.986579487e-07, Final residual = 9.986579487e-07, No Iterations 0
C concentration =   Min(Yi) = 2.374276023e-36  Max(Yi) = 0.00999989343
GAMG:  Solving for p, Initial residual = 2.607607318e-06, Final residual = 9.038714282e-07, No Iterations 2
time step continuity errors : sum local = 1.52620574e-06, global = 1.42944918e-08, cumulative = -2.598464936e-08
BiCGStab:  Solving for C, Initial residual = 9.998956651e-07, Final residual = 9.998956651e-07, No Iterations 0
C concentration =   Min(Yi) = 2.374276023e-36  Max(Yi) = 0.00999989343
GAMG:  Solving for p, Initial residual = 2.444702479e-06, Final residual = 9.536242205e-07, No Iterations 1
time step continuity errors : sum local = 1.61021219e-06, global = 1.612003218e-08, cumulative = -9.864617173e-09
BiCGStab:  Solving for C, Initial residual = 1.000638086e-06, Final residual = 4.849801142e-11, No Iterations 1
C concentration =   Min(Yi) = 2.374221768e-36  Max(Yi) = 0.009999893445
GAMG:  Solving for p, Initial residual = 2.217528854e-06, Final residual = 9.619586033e-07, No Iterations 1
time step continuity errors : sum local = 1.62428628e-06, global = 1.615283806e-08, cumulative = 6.288220888e-09
BiCGStab:  Solving for C, Initial residual = 9.982655969e-07, Final residual = 9.982655969e-07, No Iterations 0
C concentration =   Min(Yi) = 2.374221768e-36  Max(Yi) = 0.009999893445
GAMG:  Solving for p, Initial residual = 2.055743704e-06, Final residual = 9.606658825e-07, No Iterations 1
time step continuity errors : sum local = 1.622107554e-06, global = 1.596980687e-08, cumulative = 2.225802776e-08
BiCGStab:  Solving for C, Initial residual = 9.994478924e-07, Final residual = 9.994478924e-07, No Iterations 0
C concentration =   Min(Yi) = 2.374221768e-36  Max(Yi) = 0.009999893445
GAMG:  Solving for p, Initial residual = 1.913460982e-06, Final residual = 9.606663805e-07, No Iterations 1
time step continuity errors : sum local = 1.622112608e-06, global = 1.560254047e-08, cumulative = 3.786056822e-08
BiCGStab:  Solving for C, Initial residual = 1.000670844e-06, Final residual = 4.842517849e-11, No Iterations 1
C concentration =   Min(Yi) = 2.374167532e-36  Max(Yi) = 0.00999989346
GAMG:  Solving for p, Initial residual = 1.78126451e-06, Final residual = 9.514498007e-07, No Iterations 1
time step continuity errors : sum local = 1.606551662e-06, global = 1.501266159e-08, cumulative = 5.287322981e-08
BiCGStab:  Solving for C, Initial residual = 9.984312389e-07, Final residual = 9.984312389e-07, No Iterations 0
C concentration =   Min(Yi) = 2.374167532e-36  Max(Yi) = 0.00999989346
GAMG:  Solving for p, Initial residual = 1.66106855e-06, Final residual = 9.725486192e-07, No Iterations 1
time step continuity errors : sum local = 1.64217871e-06, global = 1.424713649e-08, cumulative = 6.71203663e-08
BiCGStab:  Solving for C, Initial residual = 9.996942149e-07, Final residual = 9.996942149e-07, No Iterations 0
C concentration =   Min(Yi) = 2.374167532e-36  Max(Yi) = 0.00999989346
GAMG:  Solving for p, Initial residual = 1.561249019e-06, Final residual = 6.667017617e-07, No Iterations 3
time step continuity errors : sum local = 1.125746861e-06, global = 6.079668295e-09, cumulative = 7.320003459e-08
BiCGStab:  Solving for C, Initial residual = 1.000860111e-06, Final residual = 4.826044038e-11, No Iterations 1
C concentration =   Min(Yi) = 2.374113315e-36  Max(Yi) = 0.009999893475
GAMG:  Solving for p, Initial residual = 1.496116583e-06, Final residual = 9.790718479e-07, No Iterations 1
time step continuity errors : sum local = 1.653099644e-06, global = 1.01691888e-08, cumulative = 8.336922339e-08
BiCGStab:  Solving for C, Initial residual = 9.987507412e-07, Final residual = 9.987507412e-07, No Iterations 0
C concentration =   Min(Yi) = 2.374113315e-36  Max(Yi) = 0.009999893475
GAMG:  Solving for p, Initial residual = 1.406405183e-06, Final residual = 6.595148037e-07, No Iterations 2
time step continuity errors : sum local = 1.113546621e-06, global = 4.952140519e-09, cumulative = 8.832136391e-08
BiCGStab:  Solving for C, Initial residual = 9.996764053e-07, Final residual = 9.996764053e-07, No Iterations 0
C concentration =   Min(Yi) = 2.374113315e-36  Max(Yi) = 0.009999893475
GAMG:  Solving for p, Initial residual = 1.225673572e-06, Final residual = 4.668128384e-07, No Iterations 2
time step continuity errors : sum local = 7.881513643e-07, global = 3.126141812e-09, cumulative = 9.144750572e-08
BiCGStab:  Solving for C, Initial residual = 1.00084214e-06, Final residual = 4.801293098e-11, No Iterations 1
C concentration =   Min(Yi) = 2.374059116e-36  Max(Yi) = 0.009999893491
GAMG:  Solving for p, Initial residual = 1.122573902e-06, Final residual = 5.940095515e-07, No Iterations 1
time step continuity errors : sum local = 1.002876917e-06, global = 3.156538216e-09, cumulative = 9.460404394e-08
BiCGStab:  Solving for C, Initial residual = 9.985345366e-07, Final residual = 9.985345366e-07, No Iterations 0
C concentration =   Min(Yi) = 2.374059116e-36  Max(Yi) = 0.009999893491
GAMG:  Solving for p, Initial residual = 9.405879935e-07, Final residual = 9.405879935e-07, No Iterations 0
time step continuity errors : sum local = 1.587981284e-06, global = 1.292475752e-09, cumulative = 9.589651969e-08
BiCGStab:  Solving for C, Initial residual = 9.998451643e-07, Final residual = 9.998451643e-07, No Iterations 0
C concentration =   Min(Yi) = 2.374059116e-36  Max(Yi) = 0.009999893491

STEADYSTATE solution converged in 37 iterations

ExecutionTime = 3.19 s  ClockTime = 3 s

Courant Number mean: 1.526126048 max: 43.57908667 velocity magnitude: 0.0002325897166
Mesh Courant Number mean: 8.560263222e-09 max: 0.005709951898
deltaT = 5.25170846
Time = 14291.64934

DICPCG:  Solving for cellMotionUx, Initial residual = 0.9999999928, Final residual = 7.981749209e-07, No Iterations 17
DICPCG:  Solving for cellMotionUy, Initial residual = 0.9999999735, Final residual = 9.492777248e-07, No Iterations 17

STEADYSTATE: convergence criteria
    field p	 tolerance 1e-06
    field U	 tolerance 1e-06
    field C	 tolerance 1e-06

GAMG:  Solving for p, Initial residual = 1.2568556e-06, Final residual = 4.665238509e-07, No Iterations 1
time step continuity errors : sum local = 6.895337914e-07, global = 8.321123889e-10, cumulative = 9.672863208e-08
BiCGStab:  Solving for C, Initial residual = 1.029847627e-06, Final residual = 5.578932947e-11, No Iterations 1
C concentration =   Min(Yi) = 2.374004936e-36  Max(Yi) = 0.009999893507
GAMG:  Solving for p, Initial residual = 1.008264615e-06, Final residual = 4.471579814e-07, No Iterations 1
time step continuity errors : sum local = 6.609099876e-07, global = -3.846837078e-10, cumulative = 9.634394837e-08
BiCGStab:  Solving for C, Initial residual = 1.024956172e-06, Final residual = 5.41757517e-11, No Iterations 1
C concentration =   Min(Yi) = 2.373950775e-36  Max(Yi) = 0.009999893522
GAMG:  Solving for p, Initial residual = 8.544752849e-07, Final residual = 8.544752849e-07, No Iterations 0
time step continuity errors : sum local = 1.262933732e-06, global = -3.147355346e-09, cumulative = 9.319659303e-08
BiCGStab:  Solving for C, Initial residual = 1.021405336e-06, Final residual = 5.314449427e-11, No Iterations 1
C concentration =   Min(Yi) = 2.373896632e-36  Max(Yi) = 0.009999893538
GAMG:  Solving for p, Initial residual = 9.629083853e-07, Final residual = 9.629083853e-07, No Iterations 0
time step continuity errors : sum local = 1.423200259e-06, global = -4.757157178e-09, cumulative = 8.843943585e-08
BiCGStab:  Solving for C, Initial residual = 1.017533642e-06, Final residual = 5.208897367e-11, No Iterations 1
C concentration =   Min(Yi) = 2.373842508e-36  Max(Yi) = 0.009999893553
GAMG:  Solving for p, Initial residual = 1.088015571e-06, Final residual = 6.397845853e-07, No Iterations 1
time step continuity errors : sum local = 9.456159852e-07, global = -4.173177817e-09, cumulative = 8.426625803e-08
BiCGStab:  Solving for C, Initial residual = 1.01354438e-06, Final residual = 5.086596056e-11, No Iterations 1
C concentration =   Min(Yi) = 2.373788401e-36  Max(Yi) = 0.009999893568
GAMG:  Solving for p, Initial residual = 9.797076585e-07, Final residual = 9.797076585e-07, No Iterations 0
time step continuity errors : sum local = 1.448030644e-06, global = -7.126719366e-09, cumulative = 7.713953867e-08
BiCGStab:  Solving for C, Initial residual = 1.010423651e-06, Final residual = 5.034613054e-11, No Iterations 1
C concentration =   Min(Yi) = 2.373734313e-36  Max(Yi) = 0.009999893583
GAMG:  Solving for p, Initial residual = 1.098398703e-06, Final residual = 8.477554879e-07, No Iterations 1
time step continuity errors : sum local = 1.253002246e-06, global = -6.594446661e-09, cumulative = 7.0545092e-08
BiCGStab:  Solving for C, Initial residual = 1.007077163e-06, Final residual = 4.942093369e-11, No Iterations 1
C concentration =   Min(Yi) = 2.373680243e-36  Max(Yi) = 0.009999893598
GAMG:  Solving for p, Initial residual = 1.063658283e-06, Final residual = 4.742698976e-07, No Iterations 2
time step continuity errors : sum local = 7.009839882e-07, global = -3.888214745e-09, cumulative = 6.665687726e-08
BiCGStab:  Solving for C, Initial residual = 1.004059053e-06, Final residual = 4.884946501e-11, No Iterations 1
C concentration =   Min(Yi) = 2.373626191e-36  Max(Yi) = 0.009999893613
GAMG:  Solving for p, Initial residual = 9.109118857e-07, Final residual = 9.109118857e-07, No Iterations 0
time step continuity errors : sum local = 1.346405839e-06, global = -8.383058891e-09, cumulative = 5.827381837e-08
BiCGStab:  Solving for C, Initial residual = 1.001032936e-06, Final residual = 4.842699574e-11, No Iterations 1
C concentration =   Min(Yi) = 2.373572157e-36  Max(Yi) = 0.009999893628
GAMG:  Solving for p, Initial residual = 9.890422647e-07, Final residual = 9.890422647e-07, No Iterations 0
time step continuity errors : sum local = 1.461889228e-06, global = -9.155402748e-09, cumulative = 4.911841562e-08
BiCGStab:  Solving for C, Initial residual = 9.98150593e-07, Final residual = 9.98150593e-07, No Iterations 0
C concentration =   Min(Yi) = 2.373572157e-36  Max(Yi) = 0.009999893628

STEADYSTATE solution converged in 10 iterations

ExecutionTime = 4.01 s  ClockTime = 4 s

Courant Number mean: 1.336044652 max: 38.1577608 velocity magnitude: 0.0002326264244
Mesh Courant Number mean: 3.285500002e-06 max: 0.004998481235
deltaT = 5.25170846
Time = 14296.90105

DICPCG:  Solving for cellMotionUx, Initial residual = 5.909518453e-05, Final residual = 8.43852004e-07, No Iterations 2
DICPCG:  Solving for cellMotionUy, Initial residual = 2.902227922e-05, Final residual = 3.052175137e-07, No Iterations 2

STEADYSTATE: convergence criteria
    field p	 tolerance 1e-06
    field U	 tolerance 1e-06
    field C	 tolerance 1e-06

GAMG:  Solving for p, Initial residual = 1.14713208e-06, Final residual = 5.778279438e-07, No Iterations 2
time step continuity errors : sum local = 8.540783535e-07, global = -4.335921096e-09, cumulative = 4.478249452e-08
BiCGStab:  Solving for C, Initial residual = 1.043438553e-06, Final residual = 5.818227076e-11, No Iterations 1
C concentration =   Min(Yi) = 2.37351814e-36  Max(Yi) = 0.009999893643
GAMG:  Solving for p, Initial residual = 1.054197967e-06, Final residual = 9.282293036e-07, No Iterations 1
time step continuity errors : sum local = 1.372057952e-06, global = -4.335013152e-09, cumulative = 4.044748137e-08
BiCGStab:  Solving for C, Initial residual = 1.037657919e-06, Final residual = 5.634955363e-11, No Iterations 1
C concentration =   Min(Yi) = 2.373464142e-36  Max(Yi) = 0.009999893658
GAMG:  Solving for p, Initial residual = 9.980080729e-07, Final residual = 9.980080729e-07, No Iterations 0
time step continuity errors : sum local = 1.475244857e-06, global = -7.157286924e-09, cumulative = 3.329019445e-08
BiCGStab:  Solving for C, Initial residual = 1.032681681e-06, Final residual = 5.503628159e-11, No Iterations 1
C concentration =   Min(Yi) = 2.373410161e-36  Max(Yi) = 0.009999893673
GAMG:  Solving for p, Initial residual = 1.059632858e-06, Final residual = 8.838280179e-07, No Iterations 1
time step continuity errors : sum local = 1.306465132e-06, global = -2.643733972e-09, cumulative = 3.064646048e-08
BiCGStab:  Solving for C, Initial residual = 1.027859825e-06, Final residual = 5.364172731e-11, No Iterations 1
C concentration =   Min(Yi) = 2.373356197e-36  Max(Yi) = 0.009999893687
GAMG:  Solving for p, Initial residual = 1.071562996e-06, Final residual = 7.306428871e-07, No Iterations 1
time step continuity errors : sum local = 1.080068802e-06, global = -2.68474831e-09, cumulative = 2.796171217e-08
BiCGStab:  Solving for C, Initial residual = 1.023478357e-06, Final residual = 5.260005865e-11, No Iterations 1
C concentration =   Min(Yi) = 2.373302251e-36  Max(Yi) = 0.009999893702
GAMG:  Solving for p, Initial residual = 1.01598107e-06, Final residual = 5.396141633e-07, No Iterations 1
time step continuity errors : sum local = 7.977044445e-07, global = -2.558791517e-09, cumulative = 2.540292065e-08
BiCGStab:  Solving for C, Initial residual = 1.019332231e-06, Final residual = 5.169161748e-11, No Iterations 1
C concentration =   Min(Yi) = 2.373248323e-36  Max(Yi) = 0.009999893717
GAMG:  Solving for p, Initial residual = 8.93340154e-07, Final residual = 8.93340154e-07, No Iterations 0
time step continuity errors : sum local = 1.320632752e-06, global = -2.534079987e-09, cumulative = 2.286884066e-08
BiCGStab:  Solving for C, Initial residual = 1.014982608e-06, Final residual = 5.077284433e-11, No Iterations 1
C concentration =   Min(Yi) = 2.373194412e-36  Max(Yi) = 0.009999893731
GAMG:  Solving for p, Initial residual = 9.5763458e-07, Final residual = 9.5763458e-07, No Iterations 0
time step continuity errors : sum local = 1.415679803e-06, global = -1.693753082e-09, cumulative = 2.117508758e-08
BiCGStab:  Solving for C, Initial residual = 1.011109863e-06, Final residual = 5.003535261e-11, No Iterations 1
C concentration =   Min(Yi) = 2.373140518e-36  Max(Yi) = 0.009999893746
GAMG:  Solving for p, Initial residual = 1.029331479e-06, Final residual = 3.794752513e-07, No Iterations 1
time step continuity errors : sum local = 5.609816834e-07, global = -1.284627017e-09, cumulative = 1.989046056e-08
BiCGStab:  Solving for C, Initial residual = 1.007814747e-06, Final residual = 4.957073307e-11, No Iterations 1
C concentration =   Min(Yi) = 2.373086643e-36  Max(Yi) = 0.00999989376
GAMG:  Solving for p, Initial residual = 7.971360215e-07, Final residual = 7.971360215e-07, No Iterations 0
time step continuity errors : sum local = 1.178413324e-06, global = -1.809868997e-10, cumulative = 1.970947366e-08
BiCGStab:  Solving for C, Initial residual = 1.003928852e-06, Final residual = 4.88591956e-11, No Iterations 1
C concentration =   Min(Yi) = 2.373032784e-36  Max(Yi) = 0.009999893775
GAMG:  Solving for p, Initial residual = 8.51364997e-07, Final residual = 8.51364997e-07, No Iterations 0
time step continuity errors : sum local = 1.258580519e-06, global = 6.21336805e-10, cumulative = 2.033081047e-08
BiCGStab:  Solving for C, Initial residual = 1.000493976e-06, Final residual = 4.835655416e-11, No Iterations 1
C concentration =   Min(Yi) = 2.372978943e-36  Max(Yi) = 0.009999893789
GAMG:  Solving for p, Initial residual = 9.126013561e-07, Final residual = 9.126013561e-07, No Iterations 0
time step continuity errors : sum local = 1.349106795e-06, global = 1.420969808e-09, cumulative = 2.175178028e-08
BiCGStab:  Solving for C, Initial residual = 9.971736626e-07, Final residual = 9.971736626e-07, No Iterations 0
C concentration =   Min(Yi) = 2.372978943e-36  Max(Yi) = 0.009999893789

STEADYSTATE solution converged in 12 iterations

ExecutionTime = 4.91 s  ClockTime = 5 s

Courant Number mean: 1.336052034 max: 38.16378625 velocity magnitude: 0.0002326631516
Mesh Courant Number mean: 3.285426142e-06 max: 0.004998343647
deltaT = 5.25170846
Time = 14302.15276

DICPCG:  Solving for cellMotionUx, Initial residual = 2.779844136e-05, Final residual = 4.951685279e-07, No Iterations 2
DICPCG:  Solving for cellMotionUy, Initial residual = 9.582813024e-06, Final residual = 4.305316899e-07, No Iterations 1

STEADYSTATE: convergence criteria
    field p	 tolerance 1e-06
    field U	 tolerance 1e-06
    field C	 tolerance 1e-06

GAMG:  Solving for p, Initial residual = 1.001194315e-06, Final residual = 4.20823757e-07, No Iterations 1
time step continuity errors : sum local = 6.22106925e-07, global = 1.508588577e-09, cumulative = 2.326036885e-08
BiCGStab:  Solving for C, Initial residual = 1.044128234e-06, Final residual = 5.895670528e-11, No Iterations 1
C concentration =   Min(Yi) = 2.372925118e-36  Max(Yi) = 0.009999893804
GAMG:  Solving for p, Initial residual = 7.565017273e-07, Final residual = 7.565017273e-07, No Iterations 0
time step continuity errors : sum local = 1.118340598e-06, global = 2.747951246e-09, cumulative = 2.60083201e-08
BiCGStab:  Solving for C, Initial residual = 1.038164167e-06, Final residual = 5.725705537e-11, No Iterations 1
C concentration =   Min(Yi) = 2.372871311e-36  Max(Yi) = 0.009999893818
GAMG:  Solving for p, Initial residual = 7.957971455e-07, Final residual = 7.957971455e-07, No Iterations 0
time step continuity errors : sum local = 1.176431235e-06, global = 3.489987285e-09, cumulative = 2.949830738e-08
BiCGStab:  Solving for C, Initial residual = 1.032412933e-06, Final residual = 5.573003824e-11, No Iterations 1
C concentration =   Min(Yi) = 2.37281752e-36  Max(Yi) = 0.009999893833
GAMG:  Solving for p, Initial residual = 8.440870389e-07, Final residual = 8.440870389e-07, No Iterations 0
time step continuity errors : sum local = 1.247818454e-06, global = 4.231078948e-09, cumulative = 3.372938633e-08
BiCGStab:  Solving for C, Initial residual = 1.027124602e-06, Final residual = 5.44242461e-11, No Iterations 1
C concentration =   Min(Yi) = 2.372763747e-36  Max(Yi) = 0.009999893848
GAMG:  Solving for p, Initial residual = 9.003180758e-07, Final residual = 9.003180758e-07, No Iterations 0
time step continuity errors : sum local = 1.33094511e-06, global = 4.97108702e-09, cumulative = 3.870047335e-08
BiCGStab:  Solving for C, Initial residual = 1.022151841e-06, Final residual = 5.328640074e-11, No Iterations 1
C concentration =   Min(Yi) = 2.37270999e-36  Max(Yi) = 0.009999893862
GAMG:  Solving for p, Initial residual = 9.634130812e-07, Final residual = 9.634130812e-07, No Iterations 0
time step continuity errors : sum local = 1.424218809e-06, global = 5.709898449e-09, cumulative = 4.44103718e-08
BiCGStab:  Solving for C, Initial residual = 1.017441159e-06, Final residual = 5.23121309e-11, No Iterations 1
C concentration =   Min(Yi) = 2.37265625e-36  Max(Yi) = 0.009999893876
GAMG:  Solving for p, Initial residual = 1.032120483e-06, Final residual = 8.144267305e-07, No Iterations 1
time step continuity errors : sum local = 1.203971484e-06, global = 3.271169927e-09, cumulative = 4.768154173e-08
BiCGStab:  Solving for C, Initial residual = 1.013193767e-06, Final residual = 5.152482198e-11, No Iterations 1
C concentration =   Min(Yi) = 2.372602528e-36  Max(Yi) = 0.009999893891
GAMG:  Solving for p, Initial residual = 9.284363815e-07, Final residual = 9.284363815e-07, No Iterations 0
time step continuity errors : sum local = 1.372498261e-06, global = 5.956669797e-09, cumulative = 5.363821153e-08
BiCGStab:  Solving for C, Initial residual = 1.008705429e-06, Final residual = 5.075908043e-11, No Iterations 1
C concentration =   Min(Yi) = 2.372548822e-36  Max(Yi) = 0.009999893905
GAMG:  Solving for p, Initial residual = 9.850648903e-07, Final residual = 9.850648903e-07, No Iterations 0
time step continuity errors : sum local = 1.456211624e-06, global = 6.420480627e-09, cumulative = 6.005869215e-08
BiCGStab:  Solving for C, Initial residual = 1.004577932e-06, Final residual = 5.012253606e-11, No Iterations 1
C concentration =   Min(Yi) = 2.372495133e-36  Max(Yi) = 0.00999989392
GAMG:  Solving for p, Initial residual = 1.045832634e-06, Final residual = 9.28323782e-07, No Iterations 1
time step continuity errors : sum local = 1.372331811e-06, global = 2.927371226e-09, cumulative = 6.298606338e-08
BiCGStab:  Solving for C, Initial residual = 1.001194186e-06, Final residual = 4.969430701e-11, No Iterations 1
C concentration =   Min(Yi) = 2.372441461e-36  Max(Yi) = 0.009999893934
GAMG:  Solving for p, Initial residual = 1.005265522e-06, Final residual = 8.031853532e-07, No Iterations 1
time step continuity errors : sum local = 1.187309318e-06, global = 2.533389766e-09, cumulative = 6.551945315e-08
BiCGStab:  Solving for C, Initial residual = 9.974700187e-07, Final residual = 9.974700187e-07, No Iterations 0
C concentration =   Min(Yi) = 2.372441461e-36  Max(Yi) = 0.009999893934
GAMG:  Solving for p, Initial residual = 9.683349725e-07, Final residual = 9.683349725e-07, No Iterations 0
time step continuity errors : sum local = 1.431403371e-06, global = 4.653098546e-09, cumulative = 7.017255169e-08
BiCGStab:  Solving for C, Initial residual = 9.981037536e-07, Final residual = 9.981037536e-07, No Iterations 0
C concentration =   Min(Yi) = 2.372441461e-36  Max(Yi) = 0.009999893934

STEADYSTATE solution converged in 12 iterations

ExecutionTime = 5.79 s  ClockTime = 6 s

Courant Number mean: 1.336053584 max: 38.16870722 velocity magnitude: 0.0002326931453
Mesh Courant Number mean: 3.285375623e-06 max: 0.004998152711
deltaT = 5.25170846
Time = 14307.40446

DICPCG:  Solving for cellMotionUx, Initial residual = 3.205498895e-05, Final residual = 5.172617712e-07, No Iterations 2
DICPCG:  Solving for cellMotionUy, Initial residual = 1.356545782e-05, Final residual = 6.855978756e-07, No Iterations 1

STEADYSTATE: convergence criteria
    field p	 tolerance 1e-06
    field U	 tolerance 1e-06
    field C	 tolerance 1e-06

GAMG:  Solving for p, Initial residual = 1.121279096e-06, Final residual = 4.337249489e-07, No Iterations 1
time step continuity errors : sum local = 6.411363192e-07, global = 3.977195754e-09, cumulative = 7.414974745e-08
BiCGStab:  Solving for C, Initial residual = 1.046047778e-06, Final residual = 6.061635712e-11, No Iterations 1
C concentration =   Min(Yi) = 2.372387806e-36  Max(Yi) = 0.009999893949
GAMG:  Solving for p, Initial residual = 8.431949013e-07, Final residual = 8.431949013e-07, No Iterations 0
time step continuity errors : sum local = 1.246410312e-06, global = 4.111881502e-09, cumulative = 7.826162895e-08
BiCGStab:  Solving for C, Initial residual = 1.040079025e-06, Final residual = 5.897423981e-11, No Iterations 1
C concentration =   Min(Yi) = 2.372334166e-36  Max(Yi) = 0.009999893964
GAMG:  Solving for p, Initial residual = 8.482931107e-07, Final residual = 8.482931107e-07, No Iterations 0
time step continuity errors : sum local = 1.253946469e-06, global = 3.897224401e-09, cumulative = 8.215885335e-08
BiCGStab:  Solving for C, Initial residual = 1.033997945e-06, Final residual = 5.739874625e-11, No Iterations 1
C concentration =   Min(Yi) = 2.372280543e-36  Max(Yi) = 0.009999893978
GAMG:  Solving for p, Initial residual = 8.621391605e-07, Final residual = 8.621391605e-07, No Iterations 0
time step continuity errors : sum local = 1.274413679e-06, global = 3.686086423e-09, cumulative = 8.584493977e-08
BiCGStab:  Solving for C, Initial residual = 1.028403289e-06, Final residual = 5.603338425e-11, No Iterations 1
C concentration =   Min(Yi) = 2.372226937e-36  Max(Yi) = 0.009999893993
GAMG:  Solving for p, Initial residual = 8.839849232e-07, Final residual = 8.839849232e-07, No Iterations 0
time step continuity errors : sum local = 1.30670606e-06, global = 3.47822379e-09, cumulative = 8.932316356e-08
BiCGStab:  Solving for C, Initial residual = 1.023122472e-06, Final residual = 5.484679854e-11, No Iterations 1
C concentration =   Min(Yi) = 2.372173347e-36  Max(Yi) = 0.009999894007
GAMG:  Solving for p, Initial residual = 9.136888955e-07, Final residual = 9.136888955e-07, No Iterations 0
time step continuity errors : sum local = 1.350614443e-06, global = 3.273432526e-09, cumulative = 9.259659609e-08
BiCGStab:  Solving for C, Initial residual = 1.018081008e-06, Final residual = 5.383036593e-11, No Iterations 1
C concentration =   Min(Yi) = 2.372119774e-36  Max(Yi) = 0.009999894022
GAMG:  Solving for p, Initial residual = 9.505701694e-07, Final residual = 9.505701694e-07, No Iterations 0
time step continuity errors : sum local = 1.405132307e-06, global = 3.071543687e-09, cumulative = 9.566813978e-08
BiCGStab:  Solving for C, Initial residual = 1.013252328e-06, Final residual = 5.297953118e-11, No Iterations 1
C concentration =   Min(Yi) = 2.372066217e-36  Max(Yi) = 0.009999894037
GAMG:  Solving for p, Initial residual = 9.937591122e-07, Final residual = 9.937591122e-07, No Iterations 0
time step continuity errors : sum local = 1.468974164e-06, global = 2.872416351e-09, cumulative = 9.854055613e-08
BiCGStab:  Solving for C, Initial residual = 1.008616869e-06, Final residual = 5.221765185e-11, No Iterations 1
C concentration =   Min(Yi) = 2.372012677e-36  Max(Yi) = 0.009999894051
GAMG:  Solving for p, Initial residual = 1.042307882e-06, Final residual = 4.782477248e-07, No Iterations 1
time step continuity errors : sum local = 7.069455125e-07, global = 3.652643684e-09, cumulative = 1.021931998e-07
BiCGStab:  Solving for C, Initial residual = 1.003938567e-06, Final residual = 5.13814129e-11, No Iterations 1
C concentration =   Min(Yi) = 2.371959154e-36  Max(Yi) = 0.009999894065
GAMG:  Solving for p, Initial residual = 7.878274331e-07, Final residual = 7.878274331e-07, No Iterations 0
time step continuity errors : sum local = 1.164559516e-06, global = 2.845692828e-09, cumulative = 1.050388926e-07
BiCGStab:  Solving for C, Initial residual = 9.997525462e-07, Final residual = 9.997525462e-07, No Iterations 0
C concentration =   Min(Yi) = 2.371959154e-36  Max(Yi) = 0.009999894065

STEADYSTATE solution converged in 10 iterations

ExecutionTime = 6.59 s  ClockTime = 7 s

Courant Number mean: 1.336049124 max: 38.17170354 velocity magnitude: 0.0002327114056
Mesh Courant Number mean: 3.285329029e-06 max: 0.00499794925
deltaT = 5.25170846
Time = 14312.65617

DICPCG:  Solving for cellMotionUx, Initial residual = 2.972143557e-05, Final residual = 4.839456255e-07, No Iterations 2
DICPCG:  Solving for cellMotionUy, Initial residual = 1.399173698e-05, Final residual = 7.265707614e-07, No Iterations 1

STEADYSTATE: convergence criteria
    field p	 tolerance 1e-06
    field U	 tolerance 1e-06
    field C	 tolerance 1e-06

GAMG:  Solving for p, Initial residual = 9.499163808e-07, Final residual = 9.499163808e-07, No Iterations 0
time step continuity errors : sum local = 1.404156533e-06, global = 2.722252905e-09, cumulative = 1.077611455e-07
BiCGStab:  Solving for C, Initial residual = 1.049804371e-06, Final residual = 6.315691223e-11, No Iterations 1
C concentration =   Min(Yi) = 2.371905646e-36  Max(Yi) = 0.00999989408
GAMG:  Solving for p, Initial residual = 9.657929518e-07, Final residual = 9.657929518e-07, No Iterations 0
time step continuity errors : sum local = 1.427625107e-06, global = 2.598717607e-09, cumulative = 1.103598632e-07
BiCGStab:  Solving for C, Initial residual = 1.042722354e-06, Final residual = 6.128848445e-11, No Iterations 1
C concentration =   Min(Yi) = 2.371852155e-36  Max(Yi) = 0.009999894095
GAMG:  Solving for p, Initial residual = 9.868116913e-07, Final residual = 9.868116913e-07, No Iterations 0
time step continuity errors : sum local = 1.458694781e-06, global = 2.475201335e-09, cumulative = 1.128350645e-07
BiCGStab:  Solving for C, Initial residual = 1.03634452e-06, Final residual = 5.962245837e-11, No Iterations 1
C concentration =   Min(Yi) = 2.371798679e-36  Max(Yi) = 0.009999894109
GAMG:  Solving for p, Initial residual = 1.012459997e-06, Final residual = 4.689971189e-07, No Iterations 1
time step continuity errors : sum local = 6.932666603e-07, global = 2.998305336e-09, cumulative = 1.158333698e-07
BiCGStab:  Solving for C, Initial residual = 1.028640982e-06, Final residual = 5.780206557e-11, No Iterations 1
C concentration =   Min(Yi) = 2.37174522e-36  Max(Yi) = 0.009999894124
GAMG:  Solving for p, Initial residual = 7.641077618e-07, Final residual = 7.641077618e-07, No Iterations 0
time step continuity errors : sum local = 1.129495753e-06, global = 2.468193609e-09, cumulative = 1.183015634e-07
BiCGStab:  Solving for C, Initial residual = 1.024113092e-06, Final residual = 5.676451199e-11, No Iterations 1
C concentration =   Min(Yi) = 2.371691777e-36  Max(Yi) = 0.009999894138
GAMG:  Solving for p, Initial residual = 7.725218192e-07, Final residual = 7.725218192e-07, No Iterations 0
time step continuity errors : sum local = 1.141933319e-06, global = 2.38893836e-09, cumulative = 1.206905018e-07
BiCGStab:  Solving for C, Initial residual = 1.018598551e-06, Final residual = 5.568909578e-11, No Iterations 1
C concentration =   Min(Yi) = 2.37163835e-36  Max(Yi) = 0.009999894153
GAMG:  Solving for p, Initial residual = 7.909043243e-07, Final residual = 7.909043243e-07, No Iterations 0
time step continuity errors : sum local = 1.169106136e-06, global = 2.308192257e-09, cumulative = 1.22998694e-07
BiCGStab:  Solving for C, Initial residual = 1.013316863e-06, Final residual = 5.47180419e-11, No Iterations 1
C concentration =   Min(Yi) = 2.37158494e-36  Max(Yi) = 0.009999894167
GAMG:  Solving for p, Initial residual = 8.182116541e-07, Final residual = 8.182116541e-07, No Iterations 0
time step continuity errors : sum local = 1.209471531e-06, global = 2.226169725e-09, cumulative = 1.252248638e-07
BiCGStab:  Solving for C, Initial residual = 1.008241885e-06, Final residual = 5.383201558e-11, No Iterations 1
C concentration =   Min(Yi) = 2.371531545e-36  Max(Yi) = 0.009999894182
GAMG:  Solving for p, Initial residual = 8.529544684e-07, Final residual = 8.529544684e-07, No Iterations 0
time step continuity errors : sum local = 1.260827977e-06, global = 2.143050779e-09, cumulative = 1.273679146e-07
BiCGStab:  Solving for C, Initial residual = 1.003357499e-06, Final residual = 5.30144508e-11, No Iterations 1
C concentration =   Min(Yi) = 2.371478168e-36  Max(Yi) = 0.009999894196
GAMG:  Solving for p, Initial residual = 8.937102303e-07, Final residual = 8.937102303e-07, No Iterations 0
time step continuity errors : sum local = 1.321072697e-06, global = 2.058993902e-09, cumulative = 1.294269085e-07
BiCGStab:  Solving for C, Initial residual = 9.986459205e-07, Final residual = 9.986459205e-07, No Iterations 0
C concentration =   Min(Yi) = 2.371478168e-36  Max(Yi) = 0.009999894196

STEADYSTATE solution converged in 10 iterations

ExecutionTime = 7.37 s  ClockTime = 7 s

Courant Number mean: 1.336044512 max: 38.17386698 velocity magnitude: 0.0002327245882
Mesh Courant Number mean: 3.285281111e-06 max: 0.004997738782
deltaT = 5.25170846
Time = 14317.90788

DICPCG:  Solving for cellMotionUx, Initial residual = 2.752298556e-05, Final residual = 4.848576264e-07, No Iterations 2
DICPCG:  Solving for cellMotionUy, Initial residual = 1.395489015e-05, Final residual = 7.073926934e-07, No Iterations 1

STEADYSTATE: convergence criteria
    field p	 tolerance 1e-06
    field U	 tolerance 1e-06
    field C	 tolerance 1e-06

GAMG:  Solving for p, Initial residual = 1.020216865e-06, Final residual = 5.65752627e-07, No Iterations 1
time step continuity errors : sum local = 8.362885054e-07, global = 1.810063036e-09, cumulative = 1.312369715e-07
BiCGStab:  Solving for C, Initial residual = 1.047132341e-06, Final residual = 6.460190596e-11, No Iterations 1
C concentration =   Min(Yi) = 2.371424805e-36  Max(Yi) = 0.009999894211
GAMG:  Solving for p, Initial residual = 8.159496344e-07, Final residual = 8.159496344e-07, No Iterations 0
time step continuity errors : sum local = 1.206126422e-06, global = 1.818362595e-09, cumulative = 1.330553341e-07
BiCGStab:  Solving for C, Initial residual = 1.041077735e-06, Final residual = 6.292858567e-11, No Iterations 1
C concentration =   Min(Yi) = 2.371371458e-36  Max(Yi) = 0.009999894225
GAMG:  Solving for p, Initial residual = 8.288835012e-07, Final residual = 8.288835012e-07, No Iterations 0
time step continuity errors : sum local = 1.2252451e-06, global = 1.710439229e-09, cumulative = 1.347657733e-07
BiCGStab:  Solving for C, Initial residual = 1.034199997e-06, Final residual = 6.112806596e-11, No Iterations 1
C concentration =   Min(Yi) = 2.371318128e-36  Max(Yi) = 0.00999989424
GAMG:  Solving for p, Initial residual = 8.513116438e-07, Final residual = 8.513116438e-07, No Iterations 0
time step continuity errors : sum local = 1.258398096e-06, global = 1.601318096e-09, cumulative = 1.363670914e-07
BiCGStab:  Solving for C, Initial residual = 1.027793125e-06, Final residual = 5.953581772e-11, No Iterations 1
C concentration =   Min(Yi) = 2.371264813e-36  Max(Yi) = 0.009999894254
GAMG:  Solving for p, Initial residual = 8.819364436e-07, Final residual = 8.819364436e-07, No Iterations 0
time step continuity errors : sum local = 1.303667286e-06, global = 1.49118505e-09, cumulative = 1.378582765e-07
BiCGStab:  Solving for C, Initial residual = 1.021703311e-06, Final residual = 5.820966126e-11, No Iterations 1
C concentration =   Min(Yi) = 2.371211514e-36  Max(Yi) = 0.009999894269
GAMG:  Solving for p, Initial residual = 9.190294304e-07, Final residual = 9.190294304e-07, No Iterations 0
time step continuity errors : sum local = 1.358497669e-06, global = 1.380196198e-09, cumulative = 1.392384727e-07
BiCGStab:  Solving for C, Initial residual = 1.01588523e-06, Final residual = 5.703561894e-11, No Iterations 1
C concentration =   Min(Yi) = 2.371158231e-36  Max(Yi) = 0.009999894283
GAMG:  Solving for p, Initial residual = 9.613606968e-07, Final residual = 9.613606968e-07, No Iterations 0
time step continuity errors : sum local = 1.421071209e-06, global = 1.268490356e-09, cumulative = 1.40506963e-07
BiCGStab:  Solving for C, Initial residual = 1.010309573e-06, Final residual = 5.595923568e-11, No Iterations 1
C concentration =   Min(Yi) = 2.371104964e-36  Max(Yi) = 0.009999894297
GAMG:  Solving for p, Initial residual = 1.008045624e-06, Final residual = 5.771353633e-07, No Iterations 1
time step continuity errors : sum local = 8.531141854e-07, global = 6.14110329e-10, cumulative = 1.411210733e-07
BiCGStab:  Solving for C, Initial residual = 1.005204696e-06, Final residual = 5.498781089e-11, No Iterations 1
C concentration =   Min(Yi) = 2.371051713e-36  Max(Yi) = 0.009999894312
GAMG:  Solving for p, Initial residual = 8.160360661e-07, Final residual = 8.160360661e-07, No Iterations 0
time step continuity errors : sum local = 1.206255159e-06, global = 8.299932418e-10, cumulative = 1.419510666e-07
BiCGStab:  Solving for C, Initial residual = 9.99830994e-07, Final residual = 9.99830994e-07, No Iterations 0
C concentration =   Min(Yi) = 2.371051713e-36  Max(Yi) = 0.009999894312

STEADYSTATE solution converged in 9 iterations

ExecutionTime = 8.35 s  ClockTime = 8 s

Courant Number mean: 1.336039826 max: 38.17571247 velocity magnitude: 0.0002327358325
Mesh Courant Number mean: 3.28522926e-06 max: 0.004997513738
deltaT = 5.25170846
Time = 14323.15959

DICPCG:  Solving for cellMotionUx, Initial residual = 2.752669146e-05, Final residual = 4.496176338e-07, No Iterations 2
DICPCG:  Solving for cellMotionUy, Initial residual = 1.489747073e-05, Final residual = 7.175153526e-07, No Iterations 1

STEADYSTATE: convergence criteria
    field p	 tolerance 1e-06
    field U	 tolerance 1e-06
    field C	 tolerance 1e-06

GAMG:  Solving for p, Initial residual = 8.617531196e-07, Final residual = 8.617531196e-07, No Iterations 0
time step continuity errors : sum local = 1.273832297e-06, global = 6.659220964e-10, cumulative = 1.426169887e-07
BiCGStab:  Solving for C, Initial residual = 1.050933209e-06, Final residual = 6.72590577e-11, No Iterations 1
C concentration =   Min(Yi) = 2.370998477e-36  Max(Yi) = 0.009999894326
GAMG:  Solving for p, Initial residual = 8.683654904e-07, Final residual = 8.683654904e-07, No Iterations 0
time step continuity errors : sum local = 1.283606616e-06, global = 5.014592053e-10, cumulative = 1.431184479e-07
BiCGStab:  Solving for C, Initial residual = 1.043181036e-06, Final residual = 6.522981554e-11, No Iterations 1
C concentration =   Min(Yi) = 2.370945257e-36  Max(Yi) = 0.009999894341
GAMG:  Solving for p, Initial residual = 8.794958424e-07, Final residual = 8.794958424e-07, No Iterations 0
time step continuity errors : sum local = 1.300059357e-06, global = 3.367307226e-10, cumulative = 1.434551786e-07
BiCGStab:  Solving for C, Initial residual = 1.036059602e-06, Final residual = 6.334287998e-11, No Iterations 1
C concentration =   Min(Yi) = 2.370892053e-36  Max(Yi) = 0.009999894355
GAMG:  Solving for p, Initial residual = 8.947567015e-07, Final residual = 8.947567015e-07, No Iterations 0
time step continuity errors : sum local = 1.322617759e-06, global = 1.718421846e-10, cumulative = 1.436270208e-07
BiCGStab:  Solving for C, Initial residual = 1.029434522e-06, Final residual = 6.172934371e-11, No Iterations 1
C concentration =   Min(Yi) = 2.370838864e-36  Max(Yi) = 0.00999989437
GAMG:  Solving for p, Initial residual = 9.142412979e-07, Final residual = 9.142412979e-07, No Iterations 0
time step continuity errors : sum local = 1.351419634e-06, global = 6.888580348e-12, cumulative = 1.436339094e-07
BiCGStab:  Solving for C, Initial residual = 1.023131978e-06, Final residual = 6.034671723e-11, No Iterations 1
C concentration =   Min(Yi) = 2.370785691e-36  Max(Yi) = 0.009999894384
GAMG:  Solving for p, Initial residual = 9.375391432e-07, Final residual = 9.375391432e-07, No Iterations 0
time step continuity errors : sum local = 1.385858204e-06, global = -1.580439802e-10, cumulative = 1.434758654e-07
BiCGStab:  Solving for C, Initial residual = 1.017101644e-06, Final residual = 5.907996163e-11, No Iterations 1
C concentration =   Min(Yi) = 2.370732533e-36  Max(Yi) = 0.009999894399
GAMG:  Solving for p, Initial residual = 9.642030841e-07, Final residual = 9.642030841e-07, No Iterations 0
time step continuity errors : sum local = 1.425272493e-06, global = -3.228770698e-10, cumulative = 1.431529883e-07
BiCGStab:  Solving for C, Initial residual = 1.01131263e-06, Final residual = 5.791125849e-11, No Iterations 1
C concentration =   Min(Yi) = 2.370679392e-36  Max(Yi) = 0.009999894413
GAMG:  Solving for p, Initial residual = 9.936616677e-07, Final residual = 9.936616677e-07, No Iterations 0
time step continuity errors : sum local = 1.468817785e-06, global = -4.875390453e-10, cumulative = 1.426654493e-07
BiCGStab:  Solving for C, Initial residual = 1.005743365e-06, Final residual = 5.682739595e-11, No Iterations 1
C concentration =   Min(Yi) = 2.370626267e-36  Max(Yi) = 0.009999894427
GAMG:  Solving for p, Initial residual = 1.025685891e-06, Final residual = 5.243235335e-07, No Iterations 1
time step continuity errors : sum local = 7.750482427e-07, global = -1.228249848e-09, cumulative = 1.414371994e-07
BiCGStab:  Solving for C, Initial residual = 9.999669954e-07, Final residual = 9.999669954e-07, No Iterations 0
C concentration =   Min(Yi) = 2.370626267e-36  Max(Yi) = 0.009999894427
GAMG:  Solving for p, Initial residual = 8.244704814e-07, Final residual = 8.244704814e-07, No Iterations 0
time step continuity errors : sum local = 1.218723529e-06, global = -1.04220747e-09, cumulative = 1.40394992e-07
BiCGStab:  Solving for C, Initial residual = 1.001040005e-06, Final residual = 5.572281198e-11, No Iterations 1
C concentration =   Min(Yi) = 2.370573157e-36  Max(Yi) = 0.009999894442
GAMG:  Solving for p, Initial residual = 8.313141758e-07, Final residual = 8.313141758e-07, No Iterations 0
time step continuity errors : sum local = 1.228839803e-06, global = -1.259262907e-09, cumulative = 1.391357291e-07
BiCGStab:  Solving for C, Initial residual = 9.958519373e-07, Final residual = 9.958519373e-07, No Iterations 0
C concentration =   Min(Yi) = 2.370573157e-36  Max(Yi) = 0.009999894442

STEADYSTATE solution converged in 11 iterations

ExecutionTime = 9.27 s  ClockTime = 9 s

Courant Number mean: 1.336034726 max: 38.17752212 velocity magnitude: 0.0002327468583
Mesh Courant Number mean: 3.285176737e-06 max: 0.004997292126
deltaT = 5.25447981
Time = 14328.41407

DICPCG:  Solving for cellMotionUx, Initial residual = 2.541695181e-05, Final residual = 4.033628475e-07, No Iterations 2
DICPCG:  Solving for cellMotionUy, Initial residual = 1.422835698e-05, Final residual = 6.803955729e-07, No Iterations 1

STEADYSTATE: convergence criteria
    field p	 tolerance 1e-06
    field U	 tolerance 1e-06
    field C	 tolerance 1e-06

GAMG:  Solving for p, Initial residual = 9.310909547e-07, Final residual = 9.310909547e-07, No Iterations 0
time step continuity errors : sum local = 1.377053681e-06, global = -1.476744347e-09, cumulative = 1.376589847e-07
BiCGStab:  Solving for C, Initial residual = 1.04731601e-06, Final residual = 6.809522441e-11, No Iterations 1
C concentration =   Min(Yi) = 2.370520062e-36  Max(Yi) = 0.009999894456
GAMG:  Solving for p, Initial residual = 9.323501903e-07, Final residual = 9.323501903e-07, No Iterations 0
time step continuity errors : sum local = 1.378916047e-06, global = -1.693129332e-09, cumulative = 1.359658554e-07
BiCGStab:  Solving for C, Initial residual = 1.039554503e-06, Final residual = 6.603631427e-11, No Iterations 1
C concentration =   Min(Yi) = 2.370466983e-36  Max(Yi) = 0.009999894471
GAMG:  Solving for p, Initial residual = 9.364975863e-07, Final residual = 9.364975863e-07, No Iterations 0
time step continuity errors : sum local = 1.385049909e-06, global = -1.909017308e-09, cumulative = 1.340568381e-07
BiCGStab:  Solving for C, Initial residual = 1.03240247e-06, Final residual = 6.412952727e-11, No Iterations 1
C concentration =   Min(Yi) = 2.370413918e-36  Max(Yi) = 0.009999894486
GAMG:  Solving for p, Initial residual = 9.433701446e-07, Final residual = 9.433701446e-07, No Iterations 0
time step continuity errors : sum local = 1.395214199e-06, global = -2.124351061e-09, cumulative = 1.31932487e-07
BiCGStab:  Solving for C, Initial residual = 1.025749446e-06, Final residual = 6.255680823e-11, No Iterations 1
C concentration =   Min(Yi) = 2.370360869e-36  Max(Yi) = 0.0099998945
GAMG:  Solving for p, Initial residual = 9.528311077e-07, Final residual = 9.528311077e-07, No Iterations 0
time step continuity errors : sum local = 1.409206656e-06, global = -2.33907879e-09, cumulative = 1.295934082e-07
BiCGStab:  Solving for C, Initial residual = 1.019415953e-06, Final residual = 6.114529268e-11, No Iterations 1
C concentration =   Min(Yi) = 2.370307836e-36  Max(Yi) = 0.009999894515
GAMG:  Solving for p, Initial residual = 9.64875116e-07, Final residual = 9.64875116e-07, No Iterations 0
time step continuity errors : sum local = 1.427019353e-06, global = -2.553153327e-09, cumulative = 1.270402549e-07
BiCGStab:  Solving for C, Initial residual = 1.01334978e-06, Final residual = 5.983501908e-11, No Iterations 1
C concentration =   Min(Yi) = 2.370254818e-36  Max(Yi) = 0.009999894529
GAMG:  Solving for p, Initial residual = 9.793201661e-07, Final residual = 9.793201661e-07, No Iterations 0
time step continuity errors : sum local = 1.448383114e-06, global = -2.766531585e-09, cumulative = 1.242737233e-07
BiCGStab:  Solving for C, Initial residual = 1.007517982e-06, Final residual = 5.862342778e-11, No Iterations 1
C concentration =   Min(Yi) = 2.370201816e-36  Max(Yi) = 0.009999894544
GAMG:  Solving for p, Initial residual = 9.958995245e-07, Final residual = 9.958995245e-07, No Iterations 0
time step continuity errors : sum local = 1.472903449e-06, global = -2.979174125e-09, cumulative = 1.212945492e-07
BiCGStab:  Solving for C, Initial residual = 1.001911695e-06, Final residual = 5.749871682e-11, No Iterations 1
C concentration =   Min(Yi) = 2.37014883e-36  Max(Yi) = 0.009999894558
GAMG:  Solving for p, Initial residual = 1.014414584e-06, Final residual = 3.835721604e-07, No Iterations 1
time step continuity errors : sum local = 5.672909185e-07, global = -2.717227495e-09, cumulative = 1.185773217e-07
BiCGStab:  Solving for C, Initial residual = 9.956180951e-07, Final residual = 9.956180951e-07, No Iterations 0
C concentration =   Min(Yi) = 2.37014883e-36  Max(Yi) = 0.009999894558
GAMG:  Solving for p, Initial residual = 7.620457911e-07, Final residual = 7.620457911e-07, No Iterations 0
time step continuity errors : sum local = 1.127043513e-06, global = -3.221260069e-09, cumulative = 1.153560616e-07
BiCGStab:  Solving for C, Initial residual = 9.970335199e-07, Final residual = 9.970335199e-07, No Iterations 0
C concentration =   Min(Yi) = 2.37014883e-36  Max(Yi) = 0.009999894558

STEADYSTATE solution converged in 10 iterations

ExecutionTime = 10.03 s  ClockTime = 10 s

Courant Number mean: 1.336735888 max: 38.19902351 velocity magnitude: 0.0002327551076
Mesh Courant Number mean: 3.286854732e-06 max: 0.00499968232
deltaT = 5.25447981
Time = 14333.66855

DICPCG:  Solving for cellMotionUx, Initial residual = 2.769268421e-05, Final residual = 4.266175825e-07, No Iterations 2
DICPCG:  Solving for cellMotionUy, Initial residual = 1.632492255e-05, Final residual = 7.31591963e-07, No Iterations 1

STEADYSTATE: convergence criteria
    field p	 tolerance 1e-06
    field U	 tolerance 1e-06
    field C	 tolerance 1e-06

GAMG:  Solving for p, Initial residual = 9.121245465e-07, Final residual = 9.121245465e-07, No Iterations 0
time step continuity errors : sum local = 1.349004253e-06, global = -3.393702878e-09, cumulative = 1.119623587e-07
BiCGStab:  Solving for C, Initial residual = 1.048874311e-06, Final residual = 6.987716201e-11, No Iterations 1
C concentration =   Min(Yi) = 2.370095858e-36  Max(Yi) = 0.009999894573
GAMG:  Solving for p, Initial residual = 9.002898684e-07, Final residual = 9.002898684e-07, No Iterations 0
time step continuity errors : sum local = 1.331501125e-06, global = -3.566166794e-09, cumulative = 1.083961919e-07
BiCGStab:  Solving for C, Initial residual = 1.04087037e-06, Final residual = 6.774810111e-11, No Iterations 1
C concentration =   Min(Yi) = 2.370042902e-36  Max(Yi) = 0.009999894588
GAMG:  Solving for p, Initial residual = 8.917541032e-07, Final residual = 8.917541032e-07, No Iterations 0
time step continuity errors : sum local = 1.318876988e-06, global = -3.738551889e-09, cumulative = 1.046576401e-07
BiCGStab:  Solving for C, Initial residual = 1.033491815e-06, Final residual = 6.578513084e-11, No Iterations 1
C concentration =   Min(Yi) = 2.36998996e-36  Max(Yi) = 0.009999894602
GAMG:  Solving for p, Initial residual = 8.863279823e-07, Final residual = 8.863279823e-07, No Iterations 0
time step continuity errors : sum local = 1.310851919e-06, global = -3.91078226e-09, cumulative = 1.007468578e-07
BiCGStab:  Solving for C, Initial residual = 1.026621218e-06, Final residual = 6.417057481e-11, No Iterations 1
C concentration =   Min(Yi) = 2.369937034e-36  Max(Yi) = 0.009999894617
GAMG:  Solving for p, Initial residual = 8.838526405e-07, Final residual = 8.838526405e-07, No Iterations 0
time step continuity errors : sum local = 1.307190962e-06, global = -4.082791429e-09, cumulative = 9.666406636e-08
BiCGStab:  Solving for C, Initial residual = 1.020080875e-06, Final residual = 6.267106064e-11, No Iterations 1
C concentration =   Min(Yi) = 2.369884123e-36  Max(Yi) = 0.009999894632
GAMG:  Solving for p, Initial residual = 8.842791112e-07, Final residual = 8.842791112e-07, No Iterations 0
time step continuity errors : sum local = 1.307821696e-06, global = -4.254520679e-09, cumulative = 9.240954568e-08
BiCGStab:  Solving for C, Initial residual = 1.01381184e-06, Final residual = 6.127698577e-11, No Iterations 1
C concentration =   Min(Yi) = 2.369831227e-36  Max(Yi) = 0.009999894646
GAMG:  Solving for p, Initial residual = 8.875480603e-07, Final residual = 8.875480603e-07, No Iterations 0
time step continuity errors : sum local = 1.312656369e-06, global = -4.425917779e-09, cumulative = 8.79836279e-08
BiCGStab:  Solving for C, Initial residual = 1.00779328e-06, Final residual = 5.998133359e-11, No Iterations 1
C concentration =   Min(Yi) = 2.369778347e-36  Max(Yi) = 0.009999894661
GAMG:  Solving for p, Initial residual = 8.935232864e-07, Final residual = 8.935232864e-07, No Iterations 0
time step continuity errors : sum local = 1.321493542e-06, global = -4.59693599e-09, cumulative = 8.338669192e-08
BiCGStab:  Solving for C, Initial residual = 1.002002101e-06, Final residual = 5.876676953e-11, No Iterations 1
C concentration =   Min(Yi) = 2.369725483e-36  Max(Yi) = 0.009999894675
GAMG:  Solving for p, Initial residual = 9.021852611e-07, Final residual = 9.021852611e-07, No Iterations 0
time step continuity errors : sum local = 1.334304334e-06, global = -4.767533272e-09, cumulative = 7.861915864e-08
BiCGStab:  Solving for C, Initial residual = 9.964172772e-07, Final residual = 9.964172772e-07, No Iterations 0
C concentration =   Min(Yi) = 2.369725483e-36  Max(Yi) = 0.009999894675

STEADYSTATE solution converged in 9 iterations

ExecutionTime = 10.78 s  ClockTime = 11 s

Courant Number mean: 1.336733081 max: 38.19995368 velocity magnitude: 0.0002327607687
Mesh Courant Number mean: 3.286796199e-06 max: 0.00499944871
deltaT = 5.25447981
Time = 14338.92303

DICPCG:  Solving for cellMotionUx, Initial residual = 2.563271833e-05, Final residual = 3.957904995e-07, No Iterations 2
DICPCG:  Solving for cellMotionUy, Initial residual = 1.518043695e-05, Final residual = 6.953125352e-07, No Iterations 1

STEADYSTATE: convergence criteria
    field p	 tolerance 1e-06
    field U	 tolerance 1e-06
    field C	 tolerance 1e-06

GAMG:  Solving for p, Initial residual = 1.101045829e-06, Final residual = 4.418968875e-07, No Iterations 1
time step continuity errors : sum local = 6.535512831e-07, global = -4.558078678e-09, cumulative = 7.406107996e-08
BiCGStab:  Solving for C, Initial residual = 1.046109381e-06, Final residual = 7.088881679e-11, No Iterations 1
C concentration =   Min(Yi) = 2.369672633e-36  Max(Yi) = 0.00999989469
GAMG:  Solving for p, Initial residual = 8.14805171e-07, Final residual = 8.14805171e-07, No Iterations 0
time step continuity errors : sum local = 1.205070808e-06, global = -4.96376928e-09, cumulative = 6.909731069e-08
BiCGStab:  Solving for C, Initial residual = 1.039671601e-06, Final residual = 6.898337708e-11, No Iterations 1
C concentration =   Min(Yi) = 2.369619797e-36  Max(Yi) = 0.009999894704
GAMG:  Solving for p, Initial residual = 7.94987344e-07, Final residual = 7.94987344e-07, No Iterations 0
time step continuity errors : sum local = 1.175760875e-06, global = -5.10419829e-09, cumulative = 6.39931124e-08
BiCGStab:  Solving for C, Initial residual = 1.032026053e-06, Final residual = 6.700794667e-11, No Iterations 1
C concentration =   Min(Yi) = 2.369566977e-36  Max(Yi) = 0.009999894719
GAMG:  Solving for p, Initial residual = 7.824312478e-07, Final residual = 7.824312478e-07, No Iterations 0
time step continuity errors : sum local = 1.15719081e-06, global = -5.245008587e-09, cumulative = 5.874810381e-08
BiCGStab:  Solving for C, Initial residual = 1.024900741e-06, Final residual = 6.530920771e-11, No Iterations 1
C concentration =   Min(Yi) = 2.369514172e-36  Max(Yi) = 0.009999894733
GAMG:  Solving for p, Initial residual = 7.776437781e-07, Final residual = 7.776437781e-07, No Iterations 0
time step continuity errors : sum local = 1.150110295e-06, global = -5.386104487e-09, cumulative = 5.336199932e-08
BiCGStab:  Solving for C, Initial residual = 1.018122094e-06, Final residual = 6.372410719e-11, No Iterations 1
C concentration =   Min(Yi) = 2.369461382e-36  Max(Yi) = 0.009999894748
GAMG:  Solving for p, Initial residual = 7.809446786e-07, Final residual = 7.809446786e-07, No Iterations 0
time step continuity errors : sum local = 1.154992221e-06, global = -5.527409485e-09, cumulative = 4.783458984e-08
BiCGStab:  Solving for C, Initial residual = 1.011632359e-06, Final residual = 6.224092034e-11, No Iterations 1
C concentration =   Min(Yi) = 2.369408607e-36  Max(Yi) = 0.009999894762
GAMG:  Solving for p, Initial residual = 7.919617754e-07, Final residual = 7.919617754e-07, No Iterations 0
time step continuity errors : sum local = 1.171286155e-06, global = -5.668855717e-09, cumulative = 4.216573412e-08
BiCGStab:  Solving for C, Initial residual = 1.005402091e-06, Final residual = 6.084969855e-11, No Iterations 1
C concentration =   Min(Yi) = 2.369355847e-36  Max(Yi) = 0.009999894777
GAMG:  Solving for p, Initial residual = 8.099640382e-07, Final residual = 8.099640382e-07, No Iterations 0
time step continuity errors : sum local = 1.197910926e-06, global = -5.810382443e-09, cumulative = 3.635535168e-08
BiCGStab:  Solving for C, Initial residual = 9.994077304e-07, Final residual = 9.994077304e-07, No Iterations 0
C concentration =   Min(Yi) = 2.369355847e-36  Max(Yi) = 0.009999894777

STEADYSTATE solution converged in 8 iterations

ExecutionTime = 11.44 s  ClockTime = 12 s

Courant Number mean: 1.336730885 max: 38.20075735 velocity magnitude: 0.000232765659
Mesh Courant Number mean: 3.286736328e-06 max: 0.004999207442
deltaT = 5.25447981
Time = 14344.17751

DICPCG:  Solving for cellMotionUx, Initial residual = 2.577922051e-05, Final residual = 3.907239303e-07, No Iterations 2
DICPCG:  Solving for cellMotionUy, Initial residual = 1.559094982e-05, Final residual = 6.927704982e-07, No Iterations 1

STEADYSTATE: convergence criteria
    field p	 tolerance 1e-06
    field U	 tolerance 1e-06
    field C	 tolerance 1e-06

GAMG:  Solving for p, Initial residual = 9.258524662e-07, Final residual = 9.258524662e-07, No Iterations 0
time step continuity errors : sum local = 1.369304823e-06, global = -5.951929069e-09, cumulative = 3.040342261e-08
BiCGStab:  Solving for C, Initial residual = 1.05188477e-06, Final residual = 7.34226683e-11, No Iterations 1
C concentration =   Min(Yi) = 2.369303102e-36  Max(Yi) = 0.009999894791
GAMG:  Solving for p, Initial residual = 9.321383159e-07, Final residual = 9.321383159e-07, No Iterations 0
time step continuity errors : sum local = 1.378601384e-06, global = -6.093457507e-09, cumulative = 2.43099651e-08
BiCGStab:  Solving for C, Initial residual = 1.043419683e-06, Final residual = 7.118137726e-11, No Iterations 1
C concentration =   Min(Yi) = 2.369250372e-36  Max(Yi) = 0.009999894806
GAMG:  Solving for p, Initial residual = 9.43045325e-07, Final residual = 9.43045325e-07, No Iterations 0
time step continuity errors : sum local = 1.394732484e-06, global = -6.234916795e-09, cumulative = 1.807504831e-08
BiCGStab:  Solving for C, Initial residual = 1.035587832e-06, Final residual = 6.920779799e-11, No Iterations 1
C concentration =   Min(Yi) = 2.369197656e-36  Max(Yi) = 0.00999989482
GAMG:  Solving for p, Initial residual = 9.587097978e-07, Final residual = 9.587097978e-07, No Iterations 0
time step continuity errors : sum local = 1.417899714e-06, global = -6.376265524e-09, cumulative = 1.169878278e-08
BiCGStab:  Solving for C, Initial residual = 1.028276867e-06, Final residual = 6.743888757e-11, No Iterations 1
C concentration =   Min(Yi) = 2.369144955e-36  Max(Yi) = 0.009999894835
GAMG:  Solving for p, Initial residual = 9.785244614e-07, Final residual = 9.785244614e-07, No Iterations 0
time step continuity errors : sum local = 1.447204937e-06, global = -6.517465634e-09, cumulative = 5.181317148e-09
BiCGStab:  Solving for C, Initial residual = 1.021308353e-06, Final residual = 6.577365911e-11, No Iterations 1
C concentration =   Min(Yi) = 2.36909227e-36  Max(Yi) = 0.009999894849
GAMG:  Solving for p, Initial residual = 1.002080426e-06, Final residual = 4.841281661e-07, No Iterations 1
time step continuity errors : sum local = 7.160093579e-07, global = -6.25753972e-09, cumulative = -1.076222572e-09
BiCGStab:  Solving for C, Initial residual = 1.012611148e-06, Final residual = 6.380460017e-11, No Iterations 1
C concentration =   Min(Yi) = 2.369039599e-36  Max(Yi) = 0.009999894864
GAMG:  Solving for p, Initial residual = 7.730889906e-07, Final residual = 7.730889906e-07, No Iterations 0
time step continuity errors : sum local = 1.143373252e-06, global = -6.646542782e-09, cumulative = -7.722765354e-09
BiCGStab:  Solving for C, Initial residual = 1.007428891e-06, Final residual = 6.256381697e-11, No Iterations 1
C concentration =   Min(Yi) = 2.368986944e-36  Max(Yi) = 0.009999894878
GAMG:  Solving for p, Initial residual = 7.745097783e-07, Final residual = 7.745097783e-07, No Iterations 0
time step continuity errors : sum local = 1.145474551e-06, global = -6.755411325e-09, cumulative = -1.447817668e-08
BiCGStab:  Solving for C, Initial residual = 1.001135312e-06, Final residual = 6.115082423e-11, No Iterations 1
C concentration =   Min(Yi) = 2.368934304e-36  Max(Yi) = 0.009999894892
GAMG:  Solving for p, Initial residual = 7.817404965e-07, Final residual = 7.817404965e-07, No Iterations 0
time step continuity errors : sum local = 1.156168546e-06, global = -6.864750893e-09, cumulative = -2.134292757e-08
BiCGStab:  Solving for C, Initial residual = 9.950815409e-07, Final residual = 9.950815409e-07, No Iterations 0
C concentration =   Min(Yi) = 2.368934304e-36  Max(Yi) = 0.009999894892

STEADYSTATE solution converged in 9 iterations

ExecutionTime = 12.17 s  ClockTime = 12 s

Courant Number mean: 1.33672843 max: 38.2015804 velocity magnitude: 0.0002327706674
Mesh Courant Number mean: 3.286674897e-06 max: 0.00499897675
deltaT = 5.25447981
Time = 14349.43199

DICPCG:  Solving for cellMotionUx, Initial residual = 2.368102187e-05, Final residual = 9.96891037e-07, No Iterations 1
DICPCG:  Solving for cellMotionUy, Initial residual = 1.434432191e-05, Final residual = 6.42503148e-07, No Iterations 1

STEADYSTATE: convergence criteria
    field p	 tolerance 1e-06
    field U	 tolerance 1e-06
    field C	 tolerance 1e-06

GAMG:  Solving for p, Initial residual = 8.551649773e-07, Final residual = 8.551649773e-07, No Iterations 0
time step continuity errors : sum local = 1.264759667e-06, global = -6.974477918e-09, cumulative = -2.831740549e-08
BiCGStab:  Solving for C, Initial residual = 1.047544972e-06, Final residual = 7.372159739e-11, No Iterations 1
C concentration =   Min(Yi) = 2.368881677e-36  Max(Yi) = 0.009999894907
GAMG:  Solving for p, Initial residual = 8.512482691e-07, Final residual = 8.512482691e-07, No Iterations 0
time step continuity errors : sum local = 1.258966989e-06, global = -7.084543782e-09, cumulative = -3.540194927e-08
BiCGStab:  Solving for C, Initial residual = 1.039039758e-06, Final residual = 7.145358482e-11, No Iterations 1
C concentration =   Min(Yi) = 2.368829066e-36  Max(Yi) = 0.009999894921
GAMG:  Solving for p, Initial residual = 8.512904648e-07, Final residual = 8.512904648e-07, No Iterations 0
time step continuity errors : sum local = 1.259029395e-06, global = -7.194885962e-09, cumulative = -4.259683523e-08
BiCGStab:  Solving for C, Initial residual = 1.031156759e-06, Final residual = 6.951375268e-11, No Iterations 1
C concentration =   Min(Yi) = 2.368776469e-36  Max(Yi) = 0.009999894935
GAMG:  Solving for p, Initial residual = 8.553993002e-07, Final residual = 8.553993002e-07, No Iterations 0
time step continuity errors : sum local = 1.26510622e-06, global = -7.305454103e-09, cumulative = -4.990228934e-08
BiCGStab:  Solving for C, Initial residual = 1.023774729e-06, Final residual = 6.770689681e-11, No Iterations 1
C concentration =   Min(Yi) = 2.368723887e-36  Max(Yi) = 0.00999989495
GAMG:  Solving for p, Initial residual = 8.63501907e-07, Final residual = 8.63501907e-07, No Iterations 0
time step continuity errors : sum local = 1.277089697e-06, global = -7.416202454e-09, cumulative = -5.731849179e-08
BiCGStab:  Solving for C, Initial residual = 1.016747369e-06, Final residual = 6.600384929e-11, No Iterations 1
C concentration =   Min(Yi) = 2.36867132e-36  Max(Yi) = 0.009999894964
GAMG:  Solving for p, Initial residual = 8.752345642e-07, Final residual = 8.752345642e-07, No Iterations 0
time step continuity errors : sum local = 1.294441893e-06, global = -7.527089237e-09, cumulative = -6.484558103e-08
BiCGStab:  Solving for C, Initial residual = 1.010012152e-06, Final residual = 6.440604921e-11, No Iterations 1
C concentration =   Min(Yi) = 2.368618767e-36  Max(Yi) = 0.009999894978
GAMG:  Solving for p, Initial residual = 8.902340805e-07, Final residual = 8.902340805e-07, No Iterations 0
time step continuity errors : sum local = 1.316625662e-06, global = -7.638076112e-09, cumulative = -7.248365714e-08
BiCGStab:  Solving for C, Initial residual = 1.003546162e-06, Final residual = 6.290863906e-11, No Iterations 1
C concentration =   Min(Yi) = 2.36856623e-36  Max(Yi) = 0.009999894993
GAMG:  Solving for p, Initial residual = 9.083497889e-07, Final residual = 9.083497889e-07, No Iterations 0
time step continuity errors : sum local = 1.343418172e-06, global = -7.74912775e-09, cumulative = -8.023278489e-08
BiCGStab:  Solving for C, Initial residual = 9.973266239e-07, Final residual = 9.973266239e-07, No Iterations 0
C concentration =   Min(Yi) = 2.36856623e-36  Max(Yi) = 0.009999894993

STEADYSTATE solution converged in 8 iterations

ExecutionTime = 12.85 s  ClockTime = 13 s

Courant Number mean: 1.336726569 max: 38.20216677 velocity magnitude: 0.0002327742336
Mesh Courant Number mean: 3.286606159e-06 max: 0.004998719192
deltaT = 5.25447981
Time = 14354.68647

DICPCG:  Solving for cellMotionUx, Initial residual = 2.64991695e-05, Final residual = 3.85570442e-07, No Iterations 2
DICPCG:  Solving for cellMotionUy, Initial residual = 1.645893771e-05, Final residual = 6.952464541e-07, No Iterations 1

STEADYSTATE: convergence criteria
    field p	 tolerance 1e-06
    field U	 tolerance 1e-06
    field C	 tolerance 1e-06

GAMG:  Solving for p, Initial residual = 1.008041454e-06, Final residual = 4.960464616e-07, No Iterations 1
time step continuity errors : sum local = 7.336349555e-07, global = -7.600830131e-09, cumulative = -8.783361502e-08
BiCGStab:  Solving for C, Initial residual = 1.046855247e-06, Final residual = 7.49590681e-11, No Iterations 1
C concentration =   Min(Yi) = 2.368513707e-36  Max(Yi) = 0.009999895007
GAMG:  Solving for p, Initial residual = 7.945725295e-07, Final residual = 7.945725295e-07, No Iterations 0
time step continuity errors : sum local = 1.175144896e-06, global = -7.872379548e-09, cumulative = -9.570599457e-08
BiCGStab:  Solving for C, Initial residual = 1.040266672e-06, Final residual = 7.300382027e-11, No Iterations 1
C concentration =   Min(Yi) = 2.368461198e-36  Max(Yi) = 0.009999895021
GAMG:  Solving for p, Initial residual = 7.883819745e-07, Final residual = 7.883819745e-07, No Iterations 0
time step continuity errors : sum local = 1.165989282e-06, global = -7.962777129e-09, cumulative = -1.036687717e-07
BiCGStab:  Solving for C, Initial residual = 1.032015899e-06, Final residual = 7.100688032e-11, No Iterations 1
C concentration =   Min(Yi) = 2.368408704e-36  Max(Yi) = 0.009999895036
GAMG:  Solving for p, Initial residual = 7.896777972e-07, Final residual = 7.896777972e-07, No Iterations 0
time step continuity errors : sum local = 1.167905759e-06, global = -8.053552374e-09, cumulative = -1.117223241e-07
BiCGStab:  Solving for C, Initial residual = 1.024283192e-06, Final residual = 6.909080855e-11, No Iterations 1
C concentration =   Min(Yi) = 2.368356224e-36  Max(Yi) = 0.00999989505
GAMG:  Solving for p, Initial residual = 7.977852594e-07, Final residual = 7.977852594e-07, No Iterations 0
time step continuity errors : sum local = 1.17989641e-06, global = -8.144654106e-09, cumulative = -1.198669782e-07
BiCGStab:  Solving for C, Initial residual = 1.016920907e-06, Final residual = 6.727930551e-11, No Iterations 1
C concentration =   Min(Yi) = 2.36830376e-36  Max(Yi) = 0.009999895064
GAMG:  Solving for p, Initial residual = 8.119668925e-07, Final residual = 8.119668925e-07, No Iterations 0
time step continuity errors : sum local = 1.200870548e-06, global = -8.236040048e-09, cumulative = -1.281030182e-07
BiCGStab:  Solving for C, Initial residual = 1.009882942e-06, Final residual = 6.557642428e-11, No Iterations 1
C concentration =   Min(Yi) = 2.36825131e-36  Max(Yi) = 0.009999895079
GAMG:  Solving for p, Initial residual = 8.310474287e-07, Final residual = 8.310474287e-07, No Iterations 0
time step continuity errors : sum local = 1.229089991e-06, global = -8.327671449e-09, cumulative = -1.364306897e-07
BiCGStab:  Solving for C, Initial residual = 1.003134423e-06, Final residual = 6.396886516e-11, No Iterations 1
C concentration =   Min(Yi) = 2.368198875e-36  Max(Yi) = 0.009999895093
GAMG:  Solving for p, Initial residual = 8.543608247e-07, Final residual = 8.543608247e-07, No Iterations 0
time step continuity errors : sum local = 1.263569685e-06, global = -8.419512691e-09, cumulative = -1.448502024e-07
BiCGStab:  Solving for C, Initial residual = 9.966625674e-07, Final residual = 9.966625674e-07, No Iterations 0
C concentration =   Min(Yi) = 2.368198875e-36  Max(Yi) = 0.009999895093

STEADYSTATE solution converged in 8 iterations

ExecutionTime = 13.57 s  ClockTime = 14 s

Courant Number mean: 1.336723995 max: 38.20283543 velocity magnitude: 0.0002327783012
Mesh Courant Number mean: 3.28654233e-06 max: 0.004998481033
deltaT = 5.25447981
Time = 14359.94095

DICPCG:  Solving for cellMotionUx, Initial residual = 2.400313856e-05, Final residual = 3.677306682e-07, No Iterations 2
DICPCG:  Solving for cellMotionUy, Initial residual = 1.494838275e-05, Final residual = 6.508229708e-07, No Iterations 1

STEADYSTATE: convergence criteria
    field p	 tolerance 1e-06
    field U	 tolerance 1e-06
    field C	 tolerance 1e-06

GAMG:  Solving for p, Initial residual = 8.791425485e-07, Final residual = 8.791425485e-07, No Iterations 0
time step continuity errors : sum local = 1.30021967e-06, global = -8.511522557e-09, cumulative = -1.533617249e-07
BiCGStab:  Solving for C, Initial residual = 1.049374558e-06, Final residual = 7.65605594e-11, No Iterations 1
C concentration =   Min(Yi) = 2.368146454e-36  Max(Yi) = 0.009999895107
GAMG:  Solving for p, Initial residual = 8.897202812e-07, Final residual = 8.897202812e-07, No Iterations 0
time step continuity errors : sum local = 1.315863749e-06, global = -8.603687263e-09, cumulative = -1.619654122e-07
BiCGStab:  Solving for C, Initial residual = 1.040486041e-06, Final residual = 7.421053266e-11, No Iterations 1
C concentration =   Min(Yi) = 2.368094047e-36  Max(Yi) = 0.009999895122
GAMG:  Solving for p, Initial residual = 9.045346821e-07, Final residual = 9.045346821e-07, No Iterations 0
time step continuity errors : sum local = 1.337773704e-06, global = -8.695970283e-09, cumulative = -1.706613825e-07
BiCGStab:  Solving for C, Initial residual = 1.032212166e-06, Final residual = 7.22344139e-11, No Iterations 1
C concentration =   Min(Yi) = 2.368041654e-36  Max(Yi) = 0.009999895136
GAMG:  Solving for p, Initial residual = 9.23338754e-07, Final residual = 9.23338754e-07, No Iterations 0
time step continuity errors : sum local = 1.365584237e-06, global = -8.788345289e-09, cumulative = -1.794497278e-07
BiCGStab:  Solving for C, Initial residual = 1.024451981e-06, Final residual = 7.029360768e-11, No Iterations 1
C concentration =   Min(Yi) = 2.367989276e-36  Max(Yi) = 0.00999989515
GAMG:  Solving for p, Initial residual = 9.452295293e-07, Final residual = 9.452295293e-07, No Iterations 0
[...]
BiCGStab:  Solving for C, Initial residual = 9.963755535e-07, Final residual = 9.963755535e-07, No Iterations 0
C concentration =   Min(Yi) = 2.33903056e-36  Max(Yi) = 0.009999903145

STEADYSTATE solution converged in 8 iterations

ExecutionTime = 79.93 s  ClockTime = 80 s

Courant Number mean: 1.349053295 max: 38.57035212 velocity magnitude: 0.0002328316703
Mesh Courant Number mean: 3.312137189e-06 max: 0.004998588655
deltaT = 5.303798283
Time = 14860.85308

DICPCG:  Solving for cellMotionUx, Initial residual = 2.387449947e-05, Final residual = 9.340045059e-07, No Iterations 1
DICPCG:  Solving for cellMotionUy, Initial residual = 1.578116027e-05, Final residual = 7.196547466e-07, No Iterations 1

STEADYSTATE: convergence criteria
    field p	 tolerance 1e-06
    field U	 tolerance 1e-06
    field C	 tolerance 1e-06

GAMG:  Solving for p, Initial residual = 8.733373901e-07, Final residual = 8.733373901e-07, No Iterations 0
time step continuity errors : sum local = 1.303514227e-06, global = -2.770612645e-09, cumulative = -1.457330358e-07
BiCGStab:  Solving for C, Initial residual = 1.049369821e-06, Final residual = 9.257590122e-11, No Iterations 1
C concentration =   Min(Yi) = 2.338990642e-36  Max(Yi) = 0.009999903156
GAMG:  Solving for p, Initial residual = 8.711704198e-07, Final residual = 8.711704198e-07, No Iterations 0
time step continuity errors : sum local = 1.300279881e-06, global = -2.891700305e-09, cumulative = -1.486247361e-07
BiCGStab:  Solving for C, Initial residual = 1.040411842e-06, Final residual = 9.260876293e-11, No Iterations 1
C concentration =   Min(Yi) = 2.33895076e-36  Max(Yi) = 0.009999903167
GAMG:  Solving for p, Initial residual = 8.732558725e-07, Final residual = 8.732558725e-07, No Iterations 0
time step continuity errors : sum local = 1.303392558e-06, global = -3.013742748e-09, cumulative = -1.516384789e-07
BiCGStab:  Solving for C, Initial residual = 1.032114332e-06, Final residual = 9.141661251e-11, No Iterations 1
C concentration =   Min(Yi) = 2.338910912e-36  Max(Yi) = 0.009999903179
GAMG:  Solving for p, Initial residual = 8.794795669e-07, Final residual = 8.794795669e-07, No Iterations 0
time step continuity errors : sum local = 1.312681838e-06, global = -3.136607537e-09, cumulative = -1.547750864e-07
BiCGStab:  Solving for C, Initial residual = 1.024225575e-06, Final residual = 8.971307534e-11, No Iterations 1
C concentration =   Min(Yi) = 2.3388711e-36  Max(Yi) = 0.00999990319
GAMG:  Solving for p, Initial residual = 8.893296003e-07, Final residual = 8.893296003e-07, No Iterations 0
time step continuity errors : sum local = 1.327383669e-06, global = -3.260182088e-09, cumulative = -1.580352685e-07
BiCGStab:  Solving for C, Initial residual = 1.016702622e-06, Final residual = 8.784170373e-11, No Iterations 1
C concentration =   Min(Yi) = 2.338831322e-36  Max(Yi) = 0.009999903201
GAMG:  Solving for p, Initial residual = 9.024063331e-07, Final residual = 9.024063331e-07, No Iterations 0
time step continuity errors : sum local = 1.346901563e-06, global = -3.384369995e-09, cumulative = -1.614196385e-07
BiCGStab:  Solving for C, Initial residual = 1.009507957e-06, Final residual = 8.597725593e-11, No Iterations 1
C concentration =   Min(Yi) = 2.33879158e-36  Max(Yi) = 0.009999903212
GAMG:  Solving for p, Initial residual = 9.184787241e-07, Final residual = 9.184787241e-07, No Iterations 0
time step continuity errors : sum local = 1.370890677e-06, global = -3.509088123e-09, cumulative = -1.649287266e-07
BiCGStab:  Solving for C, Initial residual = 1.002610707e-06, Final residual = 8.416460591e-11, No Iterations 1
C concentration =   Min(Yi) = 2.338751874e-36  Max(Yi) = 0.009999903223
GAMG:  Solving for p, Initial residual = 9.372544186e-07, Final residual = 9.372544186e-07, No Iterations 0
time step continuity errors : sum local = 1.398914651e-06, global = -3.6342643e-09, cumulative = -1.685629909e-07
BiCGStab:  Solving for C, Initial residual = 9.959853633e-07, Final residual = 9.959853633e-07, No Iterations 0
C concentration =   Min(Yi) = 2.338751874e-36  Max(Yi) = 0.009999903223

STEADYSTATE solution converged in 8 iterations

ExecutionTime = 80.64 s  ClockTime = 81 s

Courant Number mean: 1.34905097 max: 38.57035579 velocity magnitude: 0.0002328316858
Mesh Courant Number mean: 3.312067835e-06 max: 0.004997726627
deltaT = 5.303798283
Time = 14866.15688

DICPCG:  Solving for cellMotionUx, Initial residual = 2.681463027e-05, Final residual = 3.661274448e-07, No Iterations 2
DICPCG:  Solving for cellMotionUy, Initial residual = 1.80574816e-05, Final residual = 7.856727169e-07, No Iterations 1

STEADYSTATE: convergence criteria
    field p	 tolerance 1e-06
    field U	 tolerance 1e-06
    field C	 tolerance 1e-06

GAMG:  Solving for p, Initial residual = 1.106586208e-06, Final residual = 5.52165215e-07, No Iterations 1
time step continuity errors : sum local = 8.241425273e-07, global = -3.353842619e-09, cumulative = -1.719168335e-07
BiCGStab:  Solving for C, Initial residual = 1.046090401e-06, Final residual = 9.214947075e-11, No Iterations 1
C concentration =   Min(Yi) = 2.338712203e-36  Max(Yi) = 0.009999903234
GAMG:  Solving for p, Initial residual = 7.901567338e-07, Final residual = 7.901567338e-07, No Iterations 0
time step continuity errors : sum local = 1.179360471e-06, global = -3.727429956e-09, cumulative = -1.756442635e-07
BiCGStab:  Solving for C, Initial residual = 1.03915067e-06, Final residual = 9.22396682e-11, No Iterations 1
C concentration =   Min(Yi) = 2.338672568e-36  Max(Yi) = 0.009999903245
GAMG:  Solving for p, Initial residual = 7.71888251e-07, Final residual = 7.71888251e-07, No Iterations 0
time step continuity errors : sum local = 1.152093569e-06, global = -3.817429953e-09, cumulative = -1.794616934e-07
BiCGStab:  Solving for C, Initial residual = 1.030774126e-06, Final residual = 9.103865765e-11, No Iterations 1
C concentration =   Min(Yi) = 2.338632968e-36  Max(Yi) = 0.009999903256
GAMG:  Solving for p, Initial residual = 7.64661986e-07, Final residual = 7.64661986e-07, No Iterations 0
time step continuity errors : sum local = 1.141307897e-06, global = -3.907970125e-09, cumulative = -1.833696636e-07
BiCGStab:  Solving for C, Initial residual = 1.022819478e-06, Final residual = 8.933322013e-11, No Iterations 1
C concentration =   Min(Yi) = 2.338593403e-36  Max(Yi) = 0.009999903267
GAMG:  Solving for p, Initial residual = 7.684411927e-07, Final residual = 7.684411927e-07, No Iterations 0
time step continuity errors : sum local = 1.146948609e-06, global = -3.998973123e-09, cumulative = -1.873686367e-07
BiCGStab:  Solving for C, Initial residual = 1.015220623e-06, Final residual = 8.746346274e-11, No Iterations 1
C concentration =   Min(Yi) = 2.338553874e-36  Max(Yi) = 0.009999903278
GAMG:  Solving for p, Initial residual = 7.821264347e-07, Final residual = 7.821264347e-07, No Iterations 0
time step continuity errors : sum local = 1.167374725e-06, global = -4.090378163e-09, cumulative = -1.914590148e-07
BiCGStab:  Solving for C, Initial residual = 1.007957364e-06, Final residual = 8.560406069e-11, No Iterations 1
C concentration =   Min(Yi) = 2.338514381e-36  Max(Yi) = 0.009999903289
GAMG:  Solving for p, Initial residual = 8.036459301e-07, Final residual = 8.036459301e-07, No Iterations 0
time step continuity errors : sum local = 1.199493975e-06, global = -4.182132993e-09, cumulative = -1.956411478e-07
BiCGStab:  Solving for C, Initial residual = 1.000998021e-06, Final residual = 8.378737031e-11, No Iterations 1
C concentration =   Min(Yi) = 2.338474924e-36  Max(Yi) = 0.0099999033
GAMG:  Solving for p, Initial residual = 8.319300962e-07, Final residual = 8.319300962e-07, No Iterations 0
time step continuity errors : sum local = 1.241709937e-06, global = -4.274192193e-09, cumulative = -1.9991534e-07
BiCGStab:  Solving for C, Initial residual = 9.943314894e-07, Final residual = 9.943314894e-07, No Iterations 0
C concentration =   Min(Yi) = 2.338474924e-36  Max(Yi) = 0.0099999033

STEADYSTATE solution converged in 8 iterations

ExecutionTime = 81.36 s  ClockTime = 82 s

Courant Number mean: 1.349048517 max: 38.57037057 velocity magnitude: 0.0002328317684
Mesh Courant Number mean: 3.312007087e-06 max: 0.004996877342
deltaT = 5.306788023
Time = 14871.46367

DICPCG:  Solving for cellMotionUx, Initial residual = 2.657421899e-05, Final residual = 3.573082744e-07, No Iterations 2
DICPCG:  Solving for cellMotionUy, Initial residual = 1.790801429e-05, Final residual = 7.882032622e-07, No Iterations 1

STEADYSTATE: convergence criteria
    field p	 tolerance 1e-06
    field U	 tolerance 1e-06
    field C	 tolerance 1e-06

GAMG:  Solving for p, Initial residual = 8.986311176e-07, Final residual = 8.986311176e-07, No Iterations 0
time step continuity errors : sum local = 1.342020268e-06, global = -4.368972991e-09, cumulative = -2.04284313e-07
BiCGStab:  Solving for C, Initial residual = 1.047208136e-06, Final residual = 9.197755215e-11, No Iterations 1
C concentration =   Min(Yi) = 2.338435502e-36  Max(Yi) = 0.009999903311
GAMG:  Solving for p, Initial residual = 9.147905285e-07, Final residual = 9.147905285e-07, No Iterations 0
time step continuity errors : sum local = 1.366152813e-06, global = -4.461578094e-09, cumulative = -2.087458911e-07
BiCGStab:  Solving for C, Initial residual = 1.03833311e-06, Final residual = 9.199112797e-11, No Iterations 1
C concentration =   Min(Yi) = 2.338396117e-36  Max(Yi) = 0.009999903322
GAMG:  Solving for p, Initial residual = 9.364631866e-07, Final residual = 9.364631866e-07, No Iterations 0
time step continuity errors : sum local = 1.398518869e-06, global = -4.554381248e-09, cumulative = -2.133002724e-07
BiCGStab:  Solving for C, Initial residual = 1.030115374e-06, Final residual = 9.080326924e-11, No Iterations 1
C concentration =   Min(Yi) = 2.338356766e-36  Max(Yi) = 0.009999903333
GAMG:  Solving for p, Initial residual = 9.629895228e-07, Final residual = 9.629895228e-07, No Iterations 0
time step continuity errors : sum local = 1.438133432e-06, global = -4.647354352e-09, cumulative = -2.179476267e-07
BiCGStab:  Solving for C, Initial residual = 1.022321103e-06, Final residual = 8.912886996e-11, No Iterations 1
C concentration =   Min(Yi) = 2.338317452e-36  Max(Yi) = 0.009999903344
GAMG:  Solving for p, Initial residual = 9.935181689e-07, Final residual = 9.935181689e-07, No Iterations 0
time step continuity errors : sum local = 1.483725064e-06, global = -4.740472097e-09, cumulative = -2.226880988e-07
BiCGStab:  Solving for C, Initial residual = 1.014862276e-06, Final residual = 8.729258728e-11, No Iterations 1
C concentration =   Min(Yi) = 2.338278174e-36  Max(Yi) = 0.009999903355
GAMG:  Solving for p, Initial residual = 1.027298456e-06, Final residual = 8.302617453e-07, No Iterations 1
time step continuity errors : sum local = 1.239917093e-06, global = -3.597099907e-09, cumulative = -2.262851987e-07
BiCGStab:  Solving for C, Initial residual = 1.0041409e-06, Final residual = 8.526748455e-11, No Iterations 1
C concentration =   Min(Yi) = 2.338238931e-36  Max(Yi) = 0.009999903366
GAMG:  Solving for p, Initial residual = 8.141488348e-07, Final residual = 8.141488348e-07, No Iterations 0
time step continuity errors : sum local = 1.215855445e-06, global = -4.442118397e-09, cumulative = -2.307273171e-07
BiCGStab:  Solving for C, Initial residual = 9.994689223e-07, Final residual = 9.994689223e-07, No Iterations 0
C concentration =   Min(Yi) = 2.338238931e-36  Max(Yi) = 0.009999903366

STEADYSTATE solution converged in 7 iterations

ExecutionTime = 82.03 s  ClockTime = 82 s

Courant Number mean: 1.349807085 max: 38.59211615 velocity magnitude: 0.0002328317831
Mesh Courant Number mean: 3.313810402e-06 max: 0.004998851466
deltaT = 5.306788023
Time = 14876.77045

DICPCG:  Solving for cellMotionUx, Initial residual = 2.722865366e-05, Final residual = 5.005434432e-07, No Iterations 2
DICPCG:  Solving for cellMotionUy, Initial residual = 1.797166445e-05, Final residual = 6.645748582e-07, No Iterations 1

STEADYSTATE: convergence criteria
    field p	 tolerance 1e-06
    field U	 tolerance 1e-06
    field C	 tolerance 1e-06

GAMG:  Solving for p, Initial residual = 8.919802776e-07, Final residual = 8.919802776e-07, No Iterations 0
time step continuity errors : sum local = 1.332088103e-06, global = -4.42183178e-09, cumulative = -2.351491489e-07
BiCGStab:  Solving for C, Initial residual = 1.05224193e-06, Final residual = 9.32274251e-11, No Iterations 1
C concentration =   Min(Yi) = 2.338199725e-36  Max(Yi) = 0.009999903377
GAMG:  Solving for p, Initial residual = 8.962266904e-07, Final residual = 8.962266904e-07, No Iterations 0
time step continuity errors : sum local = 1.338429718e-06, global = -4.401861928e-09, cumulative = -2.395510108e-07
BiCGStab:  Solving for C, Initial residual = 1.042925409e-06, Final residual = 9.326803476e-11, No Iterations 1
C concentration =   Min(Yi) = 2.338160555e-36  Max(Yi) = 0.009999903388
GAMG:  Solving for p, Initial residual = 9.063949179e-07, Final residual = 9.063949179e-07, No Iterations 0
time step continuity errors : sum local = 1.353615002e-06, global = -4.382180014e-09, cumulative = -2.439331908e-07
BiCGStab:  Solving for C, Initial residual = 1.034275405e-06, Final residual = 9.211843606e-11, No Iterations 1
C concentration =   Min(Yi) = 2.338121421e-36  Max(Yi) = 0.009999903399
GAMG:  Solving for p, Initial residual = 9.21670656e-07, Final residual = 9.21670656e-07, No Iterations 0
time step continuity errors : sum local = 1.37642787e-06, global = -4.362768304e-09, cumulative = -2.482959591e-07
BiCGStab:  Solving for C, Initial residual = 1.026052653e-06, Final residual = 9.042347863e-11, No Iterations 1
C concentration =   Min(Yi) = 2.338082323e-36  Max(Yi) = 0.00999990341
GAMG:  Solving for p, Initial residual = 9.415338891e-07, Final residual = 9.415338891e-07, No Iterations 0
time step continuity errors : sum local = 1.406091727e-06, global = -4.343612698e-09, cumulative = -2.526395718e-07
BiCGStab:  Solving for C, Initial residual = 1.018201714e-06, Final residual = 8.854900001e-11, No Iterations 1
C concentration =   Min(Yi) = 2.338043261e-36  Max(Yi) = 0.009999903421
GAMG:  Solving for p, Initial residual = 9.654987425e-07, Final residual = 9.654987425e-07, No Iterations 0
time step continuity errors : sum local = 1.441880966e-06, global = -4.324702201e-09, cumulative = -2.56964274e-07
BiCGStab:  Solving for C, Initial residual = 1.010685537e-06, Final residual = 8.667669737e-11, No Iterations 1
C concentration =   Min(Yi) = 2.338004235e-36  Max(Yi) = 0.009999903431
GAMG:  Solving for p, Initial residual = 9.93136514e-07, Final residual = 9.93136514e-07, No Iterations 0
time step continuity errors : sum local = 1.48315536e-06, global = -4.306028329e-09, cumulative = -2.612703024e-07
BiCGStab:  Solving for C, Initial residual = 1.003478471e-06, Final residual = 8.48486119e-11, No Iterations 1
C concentration =   Min(Yi) = 2.337965246e-36  Max(Yi) = 0.009999903442
GAMG:  Solving for p, Initial residual = 1.023981128e-06, Final residual = 9.628629583e-07, No Iterations 1
time step continuity errors : sum local = 1.437944669e-06, global = -3.665890035e-09, cumulative = -2.649361924e-07
BiCGStab:  Solving for C, Initial residual = 9.948656176e-07, Final residual = 9.948656176e-07, No Iterations 0
C concentration =   Min(Yi) = 2.337965246e-36  Max(Yi) = 0.009999903442
GAMG:  Solving for p, Initial residual = 8.957821462e-07, Final residual = 8.957821462e-07, No Iterations 0
time step continuity errors : sum local = 1.337769037e-06, global = -4.023352873e-09, cumulative = -2.689595453e-07
BiCGStab:  Solving for C, Initial residual = 9.967834968e-07, Final residual = 9.967834968e-07, No Iterations 0
C concentration =   Min(Yi) = 2.337965246e-36  Max(Yi) = 0.009999903442

STEADYSTATE solution converged in 9 iterations

ExecutionTime = 82.79 s  ClockTime = 83 s

Courant Number mean: 1.34980459 max: 38.59223505 velocity magnitude: 0.0002328324938
Mesh Courant Number mean: 3.313743423e-06 max: 0.004998086265
deltaT = 5.306788023
Time = 14882.07724

DICPCG:  Solving for cellMotionUx, Initial residual = 2.372196011e-05, Final residual = 9.485276262e-07, No Iterations 1
DICPCG:  Solving for cellMotionUy, Initial residual = 1.590775223e-05, Final residual = 7.54997851e-07, No Iterations 1

STEADYSTATE: convergence criteria
    field p	 tolerance 1e-06
    field U	 tolerance 1e-06
    field C	 tolerance 1e-06

GAMG:  Solving for p, Initial residual = 1.009669945e-06, Final residual = 5.097395249e-07, No Iterations 1
time step continuity errors : sum local = 7.612487752e-07, global = -3.679939056e-09, cumulative = -2.726394843e-07
BiCGStab:  Solving for C, Initial residual = 1.047215069e-06, Final residual = 9.254051168e-11, No Iterations 1
C concentration =   Min(Yi) = 2.337926293e-36  Max(Yi) = 0.009999903453
GAMG:  Solving for p, Initial residual = 7.819709149e-07, Final residual = 7.819709149e-07, No Iterations 0
time step continuity errors : sum local = 1.16780159e-06, global = -3.762071688e-09, cumulative = -2.76401556e-07
BiCGStab:  Solving for C, Initial residual = 1.039333522e-06, Final residual = 9.266173201e-11, No Iterations 1
C concentration =   Min(Yi) = 2.337887376e-36  Max(Yi) = 0.009999903465
GAMG:  Solving for p, Initial residual = 7.813335454e-07, Final residual = 7.813335454e-07, No Iterations 0
time step continuity errors : sum local = 1.166849738e-06, global = -3.658149623e-09, cumulative = -2.800597056e-07
BiCGStab:  Solving for C, Initial residual = 1.030598619e-06, Final residual = 9.14043875e-11, No Iterations 1
C concentration =   Min(Yi) = 2.337848496e-36  Max(Yi) = 0.009999903476
GAMG:  Solving for p, Initial residual = 7.95269295e-07, Final residual = 7.95269295e-07, No Iterations 0
time step continuity errors : sum local = 1.187661499e-06, global = -3.554251438e-09, cumulative = -2.836139571e-07
BiCGStab:  Solving for C, Initial residual = 1.022293779e-06, Final residual = 8.96558513e-11, No Iterations 1
C concentration =   Min(Yi) = 2.337809652e-36  Max(Yi) = 0.009999903487
GAMG:  Solving for p, Initial residual = 8.231547745e-07, Final residual = 8.231547745e-07, No Iterations 0
time step continuity errors : sum local = 1.229305896e-06, global = -3.450410618e-09, cumulative = -2.870643677e-07
BiCGStab:  Solving for C, Initial residual = 1.014367441e-06, Final residual = 8.774957319e-11, No Iterations 1
C concentration =   Min(Yi) = 2.337770845e-36  Max(Yi) = 0.009999903498
GAMG:  Solving for p, Initial residual = 8.612958599e-07, Final residual = 8.612958599e-07, No Iterations 0
time step continuity errors : sum local = 1.286266098e-06, global = -3.346657056e-09, cumulative = -2.904110248e-07
BiCGStab:  Solving for C, Initial residual = 1.006786419e-06, Final residual = 8.585044069e-11, No Iterations 1
C concentration =   Min(Yi) = 2.337732074e-36  Max(Yi) = 0.009999903508
GAMG:  Solving for p, Initial residual = 9.073261053e-07, Final residual = 9.073261053e-07, No Iterations 0
time step continuity errors : sum local = 1.355008033e-06, global = -3.243017918e-09, cumulative = -2.936540427e-07
BiCGStab:  Solving for C, Initial residual = 9.99524779e-07, Final residual = 9.99524779e-07, No Iterations 0
C concentration =   Min(Yi) = 2.337732074e-36  Max(Yi) = 0.009999903508

STEADYSTATE solution converged in 7 iterations

ExecutionTime = 83.45 s  ClockTime = 84 s

Courant Number mean: 1.349802401 max: 38.59234963 velocity magnitude: 0.0002328331784
Mesh Courant Number mean: 3.313674691e-06 max: 0.004997232735
deltaT = 5.306788023
Time = 14887.38403

DICPCG:  Solving for cellMotionUx, Initial residual = 2.68528086e-05, Final residual = 3.624233944e-07, No Iterations 2
DICPCG:  Solving for cellMotionUy, Initial residual = 1.784909122e-05, Final residual = 7.833669345e-07, No Iterations 1

STEADYSTATE: convergence criteria
    field p	 tolerance 1e-06
    field U	 tolerance 1e-06
    field C	 tolerance 1e-06

